REMARK  Name = ../refined-set-2016/2xbp/2xbp_pocket.pdb
REMARK  271 active torsions:
REMARK  status: ('A' for Active; 'I' for Inactive)
REMARK    1  A    between atoms: _1  and  _3
REMARK    2  A    between atoms: _3  and  _4
REMARK    3  A    between atoms: _3  and  _6
REMARK    4  A    between atoms: _6  and  _7
REMARK    5  A    between atoms: _7  and  _8
REMARK    6  A    between atoms: _8  and  _9
REMARK    7  A    between atoms: _9  and  _10
REMARK    8  A    between atoms: _14  and  _16
REMARK    9  A    between atoms: _16  and  _17
REMARK   10  A    between atoms: _16  and  _19
REMARK   11  A    between atoms: _19  and  _20
REMARK   12  A    between atoms: _20  and  _21
REMARK   13  A    between atoms: _21  and  _22
REMARK   14  A    between atoms: _22  and  _23
REMARK   15  A    between atoms: _27  and  _29
REMARK   16  A    between atoms: _29  and  _30
REMARK   17  A    between atoms: _29  and  _32
REMARK   18  A    between atoms: _32  and  _33
REMARK   19  A    between atoms: _36  and  _38
REMARK   20  A    between atoms: _38  and  _39
REMARK   21  A    between atoms: _38  and  _41
REMARK   22  A    between atoms: _41  and  _42
REMARK   23  A    between atoms: _45  and  _47
REMARK   24  A    between atoms: _47  and  _48
REMARK   25  A    between atoms: _47  and  _50
REMARK   26  A    between atoms: _53  and  _55
REMARK   27  A    between atoms: _55  and  _56
REMARK   28  A    between atoms: _58  and  _60
REMARK   29  A    between atoms: _60  and  _61
REMARK   30  A    between atoms: _60  and  _63
REMARK   31  A    between atoms: _64  and  _65
REMARK   32  A    between atoms: _67  and  _69
REMARK   33  A    between atoms: _69  and  _70
REMARK   34  A    between atoms: _69  and  _72
REMARK   35  A    between atoms: _72  and  _73
REMARK   36  A    between atoms: _76  and  _78
REMARK   37  A    between atoms: _78  and  _79
REMARK   38  A    between atoms: _78  and  _81
REMARK   39  A    between atoms: _84  and  _86
REMARK   40  A    between atoms: _86  and  _87
REMARK   41  A    between atoms: _86  and  _89
REMARK   42  A    between atoms: _89  and  _90
REMARK   43  A    between atoms: _93  and  _95
REMARK   44  A    between atoms: _95  and  _96
REMARK   45  A    between atoms: _95  and  _98
REMARK   46  A    between atoms: _98  and  _99
REMARK   47  A    between atoms: _99  and  _100
REMARK   48  A    between atoms: _103  and  _105
REMARK   49  A    between atoms: _105  and  _106
REMARK   50  A    between atoms: _105  and  _108
REMARK   51  A    between atoms: _108  and  _109
REMARK   52  A    between atoms: _112  and  _114
REMARK   53  A    between atoms: _114  and  _115
REMARK   54  A    between atoms: _114  and  _117
REMARK   55  A    between atoms: _120  and  _122
REMARK   56  A    between atoms: _122  and  _123
REMARK   57  A    between atoms: _122  and  _125
REMARK   58  A    between atoms: _128  and  _130
REMARK   59  A    between atoms: _130  and  _131
REMARK   60  A    between atoms: _130  and  _133
REMARK   61  A    between atoms: _134  and  _135
REMARK   62  A    between atoms: _138  and  _140
REMARK   63  A    between atoms: _140  and  _141
REMARK   64  A    between atoms: _140  and  _143
REMARK   65  A    between atoms: _143  and  _144
REMARK   66  A    between atoms: _144  and  _145
REMARK   67  A    between atoms: _150  and  _152
REMARK   68  A    between atoms: _152  and  _153
REMARK   69  A    between atoms: _152  and  _155
REMARK   70  A    between atoms: _155  and  _156
REMARK   71  A    between atoms: _159  and  _161
REMARK   72  A    between atoms: _161  and  _162
REMARK   73  A    between atoms: _161  and  _164
REMARK   74  A    between atoms: _164  and  _165
REMARK   75  A    between atoms: _168  and  _170
REMARK   76  A    between atoms: _170  and  _171
REMARK   77  A    between atoms: _170  and  _173
REMARK   78  A    between atoms: _173  and  _174
REMARK   79  A    between atoms: _174  and  _175
REMARK   80  A    between atoms: _175  and  _176
REMARK   81  A    between atoms: _185  and  _187
REMARK   82  A    between atoms: _187  and  _188
REMARK   83  A    between atoms: _187  and  _190
REMARK   84  A    between atoms: _190  and  _191
REMARK   85  A    between atoms: _194  and  _196
REMARK   86  A    between atoms: _196  and  _197
REMARK   87  A    between atoms: _196  and  _199
REMARK   88  A    between atoms: _199  and  _200
REMARK   89  A    between atoms: _200  and  _201
REMARK   90  A    between atoms: _201  and  _202
REMARK   91  A    between atoms: _211  and  _213
REMARK   92  A    between atoms: _213  and  _214
REMARK   93  A    between atoms: _213  and  _216
REMARK   94  A    between atoms: _216  and  _217
REMARK   95  A    between atoms: _220  and  _222
REMARK   96  A    between atoms: _222  and  _223
REMARK   97  A    between atoms: _225  and  _227
REMARK   98  A    between atoms: _227  and  _228
REMARK   99  A    between atoms: _227  and  _230
REMARK  100  A    between atoms: _230  and  _231
REMARK  101  A    between atoms: _231  and  _232
REMARK  102  A    between atoms: _235  and  _237
REMARK  103  A    between atoms: _237  and  _238
REMARK  104  A    between atoms: _237  and  _240
REMARK  105  A    between atoms: _240  and  _241
REMARK  106  A    between atoms: _244  and  _246
REMARK  107  A    between atoms: _246  and  _247
REMARK  108  A    between atoms: _250  and  _252
REMARK  109  A    between atoms: _252  and  _253
REMARK  110  A    between atoms: _252  and  _255
REMARK  111  A    between atoms: _255  and  _256
REMARK  112  A    between atoms: _261  and  _262
REMARK  113  A    between atoms: _261  and  _264
REMARK  114  A    between atoms: _264  and  _265
REMARK  115  A    between atoms: _267  and  _269
REMARK  116  A    between atoms: _269  and  _270
REMARK  117  A    between atoms: _273  and  _275
REMARK  118  A    between atoms: _275  and  _276
REMARK  119  A    between atoms: _275  and  _278
REMARK  120  A    between atoms: _278  and  _279
REMARK  121  A    between atoms: _282  and  _284
REMARK  122  A    between atoms: _284  and  _285
REMARK  123  A    between atoms: _284  and  _287
REMARK  124  A    between atoms: _287  and  _288
REMARK  125  A    between atoms: _291  and  _293
REMARK  126  A    between atoms: _293  and  _294
REMARK  127  A    between atoms: _293  and  _296
REMARK  128  A    between atoms: _296  and  _297
REMARK  129  A    between atoms: _297  and  _298
REMARK  130  A    between atoms: _298  and  _299
REMARK  131  A    between atoms: _308  and  _310
REMARK  132  A    between atoms: _310  and  _311
REMARK  133  A    between atoms: _310  and  _313
REMARK  134  A    between atoms: _316  and  _318
REMARK  135  A    between atoms: _318  and  _319
REMARK  136  A    between atoms: _318  and  _321
REMARK  137  A    between atoms: _321  and  _322
REMARK  138  A    between atoms: _322  and  _323
REMARK  139  A    between atoms: _323  and  _324
REMARK  140  A    between atoms: _333  and  _335
REMARK  141  A    between atoms: _335  and  _336
REMARK  142  A    between atoms: _338  and  _340
REMARK  143  A    between atoms: _340  and  _341
REMARK  144  A    between atoms: _340  and  _343
REMARK  145  A    between atoms: _343  and  _344
REMARK  146  A    between atoms: _350  and  _352
REMARK  147  A    between atoms: _352  and  _353
REMARK  148  A    between atoms: _353  and  _354
REMARK  149  A    between atoms: _353  and  _355
REMARK  150  A    between atoms: _354  and  MG_637
REMARK  151  A    between atoms: _355  and  _357
REMARK  152  A    between atoms: _357  and  _358
REMARK  153  A    between atoms: _357  and  _360
REMARK  154  A    between atoms: _360  and  _361
REMARK  155  A    between atoms: _361  and  _362
REMARK  156  A    between atoms: _362  and  _363
REMARK  157  A    between atoms: _372  and  _374
REMARK  158  A    between atoms: _374  and  _375
REMARK  159  A    between atoms: _374  and  _377
REMARK  160  A    between atoms: _377  and  _378
REMARK  161  A    between atoms: _378  and  _379
REMARK  162  A    between atoms: _384  and  _386
REMARK  163  A    between atoms: _386  and  _387
REMARK  164  A    between atoms: _386  and  _389
REMARK  165  A    between atoms: _389  and  _390
REMARK  166  A    between atoms: _390  and  _391
REMARK  167  A    between atoms: _391  and  _392
REMARK  168  A    between atoms: _392  and  _393
REMARK  169  A    between atoms: _397  and  _399
REMARK  170  A    between atoms: _399  and  _400
REMARK  171  A    between atoms: _399  and  _402
REMARK  172  A    between atoms: _402  and  _403
REMARK  173  A    between atoms: _403  and  _404
REMARK  174  A    between atoms: _409  and  _411
REMARK  175  A    between atoms: _411  and  _412
REMARK  176  A    between atoms: _411  and  _414
REMARK  177  A    between atoms: _414  and  _415
REMARK  178  A    between atoms: _418  and  _420
REMARK  179  A    between atoms: _420  and  _421
REMARK  180  A    between atoms: _420  and  _423
REMARK  181  A    between atoms: _423  and  _424
REMARK  182  A    between atoms: _424  and  _425
REMARK  183  A    between atoms: _428  and  _430
REMARK  184  A    between atoms: _430  and  _431
REMARK  185  A    between atoms: _430  and  _433
REMARK  186  A    between atoms: _434  and  _435
REMARK  187  A    between atoms: _435  and  _436
REMARK  188  A    between atoms: _445  and  _447
REMARK  189  A    between atoms: _447  and  _448
REMARK  190  A    between atoms: _447  and  _450
REMARK  191  A    between atoms: _450  and  _451
REMARK  192  A    between atoms: _454  and  _456
REMARK  193  A    between atoms: _456  and  _457
REMARK  194  A    between atoms: _456  and  _459
REMARK  195  A    between atoms: _459  and  _460
REMARK  196  A    between atoms: _460  and  _461
REMARK  197  A    between atoms: _464  and  _466
REMARK  198  A    between atoms: _466  and  _467
REMARK  199  A    between atoms: _466  and  _469
REMARK  200  A    between atoms: _469  and  _470
REMARK  201  A    between atoms: _476  and  _478
REMARK  202  A    between atoms: _478  and  _479
REMARK  203  A    between atoms: _478  and  _481
REMARK  204  A    between atoms: _481  and  _482
REMARK  205  A    between atoms: _485  and  _487
REMARK  206  A    between atoms: _487  and  _488
REMARK  207  A    between atoms: _487  and  _490
REMARK  208  A    between atoms: _490  and  _491
REMARK  209  A    between atoms: _491  and  _492
REMARK  210  A    between atoms: _497  and  _499
REMARK  211  A    between atoms: _499  and  _500
REMARK  212  A    between atoms: _499  and  _502
REMARK  213  A    between atoms: _502  and  _503
REMARK  214  A    between atoms: _503  and  _504
REMARK  215  A    between atoms: _504  and  _505
REMARK  216  A    between atoms: _505  and  _506
REMARK  217  A    between atoms: _510  and  _512
REMARK  218  A    between atoms: _512  and  _513
REMARK  219  A    between atoms: _512  and  _515
REMARK  220  A    between atoms: _515  and  _516
REMARK  221  A    between atoms: _519  and  _521
REMARK  222  A    between atoms: _521  and  _522
REMARK  223  A    between atoms: _521  and  _524
REMARK  224  A    between atoms: _524  and  _525
REMARK  225  A    between atoms: _525  and  _526
REMARK  226  A    between atoms: _526  and  _527
REMARK  227  A    between atoms: _527  and  _528
REMARK  228  A    between atoms: _532  and  _534
REMARK  229  A    between atoms: _534  and  _535
REMARK  230  A    between atoms: _534  and  _537
REMARK  231  A    between atoms: _537  and  _538
REMARK  232  A    between atoms: _538  and  _539
REMARK  233  A    between atoms: _539  and  _540
REMARK  234  A    between atoms: _549  and  _551
REMARK  235  A    between atoms: _551  and  _552
REMARK  236  A    between atoms: _551  and  _554
REMARK  237  A    between atoms: _554  and  _555
REMARK  238  A    between atoms: _558  and  _560
REMARK  239  A    between atoms: _560  and  _561
REMARK  240  A    between atoms: _563  and  _565
REMARK  241  A    between atoms: _565  and  _566
REMARK  242  A    between atoms: _565  and  _568
REMARK  243  A    between atoms: _568  and  _569
REMARK  244  A    between atoms: _569  and  _570
REMARK  245  A    between atoms: _573  and  _575
REMARK  246  A    between atoms: _575  and  _576
REMARK  247  A    between atoms: _575  and  _578
REMARK  248  A    between atoms: _578  and  _579
REMARK  249  A    between atoms: _584  and  _586
REMARK  250  A    between atoms: _586  and  _587
REMARK  251  A    between atoms: _589  and  _591
REMARK  252  A    between atoms: _591  and  _592
REMARK  253  A    between atoms: _591  and  _594
REMARK  254  A    between atoms: _594  and  _595
REMARK  255  A    between atoms: _598  and  _600
REMARK  256  A    between atoms: _600  and  _601
REMARK  257  A    between atoms: _603  and  _605
REMARK  258  A    between atoms: _605  and  _606
REMARK  259  A    between atoms: _605  and  _608
REMARK  260  A    between atoms: _608  and  _609
REMARK  261  A    between atoms: _609  and  _610
REMARK  262  A    between atoms: _610  and  _611
REMARK  263  A    between atoms: _611  and  _612
REMARK  264  A    between atoms: _616  and  _618
REMARK  265  A    between atoms: _618  and  _619
REMARK  266  A    between atoms: _618  and  _621
REMARK  267  A    between atoms: _621  and  _622
REMARK  268  A    between atoms: _625  and  _627
REMARK  269  A    between atoms: _627  and  _628
REMARK  270  A    between atoms: _627  and  _630
REMARK  271  A    between atoms: _630  and  _631
REMARK                            x       y       z     vdW  Elec       q    Type
REMARK                         _______ _______ _______ _____ _____    ______ ____
ROOT
ATOM      1  CA  LYS A   2      30.119 -12.950  60.589  0.00  0.00    +0.149 C 
ENDROOT
BRANCH   1   2
ATOM      2  C   LYS A   2      29.546 -11.597  60.940  0.00  0.00    +0.241 C 
ATOM      3  N   ILE A   3      30.421 -10.640  61.211  0.00  0.00    -0.298 N 
ATOM      4  H   ILE A   3      31.423 -10.903  61.304  0.00  0.00    +0.150 HD
ATOM      5  O   LYS A   2      28.327 -11.414  60.949  0.00  0.00    -0.273 OA
BRANCH   3   6
ATOM      6  CA  ILE A   3      30.057  -9.239  61.386  0.00  0.00    +0.137 C 
BRANCH   6   7
ATOM      7  CB  ILE A   3      30.721  -8.743  62.646  0.00  0.00    +0.026 C 
ATOM      8  CG2 ILE A   3      30.267  -7.268  62.899  0.00  0.00    +0.002 C 
BRANCH   7   9
ATOM      9  CG1 ILE A   3      30.432  -9.685  63.823  0.00  0.00    +0.002 C 
ATOM     10  CD1 ILE A   3      31.297  -9.164  65.038  0.00  0.00    +0.000 C 
ENDBRANCH   7   9
ENDBRANCH   6   7
BRANCH   6  11
ATOM     11  C   ILE A   3      30.476  -8.516  60.105  0.00  0.00    +0.227 C 
ATOM     12  O   ILE A   3      31.658  -8.514  59.770  0.00  0.00    -0.286 OA
ENDBRANCH   6  11
ENDBRANCH   3   6
ENDBRANCH   1   2
BRANCH   1  15
ATOM     13  C   LYS A   1      30.068 -14.431  62.578  0.00  0.00    +0.238 C 
ATOM     14  O   LYS A   1      31.241 -14.203  62.868  0.00  0.00    -0.274 OA
ATOM     15  N   LYS A   2      29.516 -13.962  61.440  0.00  0.00    -0.297 N 
ATOM     16  H   LYS A   2      28.596 -14.351  61.152  0.00  0.00    +0.150 HD
BRANCH  13  17
ATOM     17  CA  LYS A   1      29.136 -15.240  63.423  0.00  0.00    +0.145 C 
BRANCH  17  18
ATOM     18  N   LYS A   1      29.912 -16.243  64.153  0.00  0.00    -0.238 NA
ATOM     19  H   LYS A   1      30.820 -15.965  64.578  0.00  0.00    +0.142 HD
ENDBRANCH  17  18
BRANCH  17  20
ATOM     20  CB  LYS A   1      28.448 -14.252  64.375  0.00  0.00    +0.026 C 
BRANCH  20  21
ATOM     21  CG  LYS A   1      27.464 -14.869  65.345  0.00  0.00    -0.000 C 
BRANCH  21  22
ATOM     22  CD  LYS A   1      26.269 -15.532  64.691  0.00  0.00    -0.024 C 
BRANCH  22  23
ATOM     23  CE  LYS A   1      25.383 -16.129  65.753  0.00  0.00    -0.086 C 
BRANCH  23  24
ATOM     24  NZ  LYS A   1      24.292 -16.915  65.077  0.00  0.00    +0.380 N 
ATOM     25  HZ1 LYS A   1      23.671 -17.334  65.798  0.00  0.00    -0.089 HD
ATOM     26  HZ2 LYS A   1      24.716 -17.670  64.502  0.00  0.00    -0.089 HD
ATOM     27  HZ3 LYS A   1      23.738 -16.282  64.466  0.00  0.00    -0.089 HD
ENDBRANCH  23  24
ENDBRANCH  22  23
ENDBRANCH  21  22
ENDBRANCH  20  21
ENDBRANCH  17  20
ENDBRANCH  13  17
ENDBRANCH   1  15
BRANCH   1  28
ATOM     28  CB  LYS A   2      29.858 -13.245  59.122  0.00  0.00    +0.029 C 
BRANCH  28  29
ATOM     29  CG  LYS A   2      30.389 -12.183  58.159  0.00  0.00    +0.000 C 
BRANCH  29  30
ATOM     30  CD  LYS A   2      30.329 -12.433  56.750  0.00  0.00    -0.024 C 
BRANCH  30  31
ATOM     31  CE  LYS A   2      31.683 -13.156  56.546  0.00  0.00    -0.086 C 
BRANCH  31  32
ATOM     32  NZ  LYS A   2      31.314 -13.054  55.191  0.00  0.00    +0.380 N 
ATOM     33  HZ1 LYS A   2      30.415 -13.554  55.039  0.00  0.00    -0.089 HD
ATOM     34  HZ2 LYS A   2      31.202 -12.051  54.938  0.00  0.00    -0.089 HD
ATOM     35  HZ3 LYS A   2      32.054 -13.482  54.598  0.00  0.00    -0.089 HD
ENDBRANCH  31  32
ENDBRANCH  30  31
ENDBRANCH  29  30
ENDBRANCH  28  29
ENDBRANCH   1  28
TORSDOF 18
REMARK  Name = ../refined-set-2016/2xbp/2xbp_pocket.pdb
REMARK  271 active torsions:
REMARK  status: ('A' for Active; 'I' for Inactive)
REMARK    1  A    between atoms: _1  and  _3
REMARK    2  A    between atoms: _3  and  _4
REMARK    3  A    between atoms: _3  and  _6
REMARK    4  A    between atoms: _6  and  _7
REMARK    5  A    between atoms: _7  and  _8
REMARK    6  A    between atoms: _8  and  _9
REMARK    7  A    between atoms: _9  and  _10
REMARK    8  A    between atoms: _14  and  _16
REMARK    9  A    between atoms: _16  and  _17
REMARK   10  A    between atoms: _16  and  _19
REMARK   11  A    between atoms: _19  and  _20
REMARK   12  A    between atoms: _20  and  _21
REMARK   13  A    between atoms: _21  and  _22
REMARK   14  A    between atoms: _22  and  _23
REMARK   15  A    between atoms: _27  and  _29
REMARK   16  A    between atoms: _29  and  _30
REMARK   17  A    between atoms: _29  and  _32
REMARK   18  A    between atoms: _32  and  _33
REMARK   19  A    between atoms: _36  and  _38
REMARK   20  A    between atoms: _38  and  _39
REMARK   21  A    between atoms: _38  and  _41
REMARK   22  A    between atoms: _41  and  _42
REMARK   23  A    between atoms: _45  and  _47
REMARK   24  A    between atoms: _47  and  _48
REMARK   25  A    between atoms: _47  and  _50
REMARK   26  A    between atoms: _53  and  _55
REMARK   27  A    between atoms: _55  and  _56
REMARK   28  A    between atoms: _58  and  _60
REMARK   29  A    between atoms: _60  and  _61
REMARK   30  A    between atoms: _60  and  _63
REMARK   31  A    between atoms: _64  and  _65
REMARK   32  A    between atoms: _67  and  _69
REMARK   33  A    between atoms: _69  and  _70
REMARK   34  A    between atoms: _69  and  _72
REMARK   35  A    between atoms: _72  and  _73
REMARK   36  A    between atoms: _76  and  _78
REMARK   37  A    between atoms: _78  and  _79
REMARK   38  A    between atoms: _78  and  _81
REMARK   39  A    between atoms: _84  and  _86
REMARK   40  A    between atoms: _86  and  _87
REMARK   41  A    between atoms: _86  and  _89
REMARK   42  A    between atoms: _89  and  _90
REMARK   43  A    between atoms: _93  and  _95
REMARK   44  A    between atoms: _95  and  _96
REMARK   45  A    between atoms: _95  and  _98
REMARK   46  A    between atoms: _98  and  _99
REMARK   47  A    between atoms: _99  and  _100
REMARK   48  A    between atoms: _103  and  _105
REMARK   49  A    between atoms: _105  and  _106
REMARK   50  A    between atoms: _105  and  _108
REMARK   51  A    between atoms: _108  and  _109
REMARK   52  A    between atoms: _112  and  _114
REMARK   53  A    between atoms: _114  and  _115
REMARK   54  A    between atoms: _114  and  _117
REMARK   55  A    between atoms: _120  and  _122
REMARK   56  A    between atoms: _122  and  _123
REMARK   57  A    between atoms: _122  and  _125
REMARK   58  A    between atoms: _128  and  _130
REMARK   59  A    between atoms: _130  and  _131
REMARK   60  A    between atoms: _130  and  _133
REMARK   61  A    between atoms: _134  and  _135
REMARK   62  A    between atoms: _138  and  _140
REMARK   63  A    between atoms: _140  and  _141
REMARK   64  A    between atoms: _140  and  _143
REMARK   65  A    between atoms: _143  and  _144
REMARK   66  A    between atoms: _144  and  _145
REMARK   67  A    between atoms: _150  and  _152
REMARK   68  A    between atoms: _152  and  _153
REMARK   69  A    between atoms: _152  and  _155
REMARK   70  A    between atoms: _155  and  _156
REMARK   71  A    between atoms: _159  and  _161
REMARK   72  A    between atoms: _161  and  _162
REMARK   73  A    between atoms: _161  and  _164
REMARK   74  A    between atoms: _164  and  _165
REMARK   75  A    between atoms: _168  and  _170
REMARK   76  A    between atoms: _170  and  _171
REMARK   77  A    between atoms: _170  and  _173
REMARK   78  A    between atoms: _173  and  _174
REMARK   79  A    between atoms: _174  and  _175
REMARK   80  A    between atoms: _175  and  _176
REMARK   81  A    between atoms: _185  and  _187
REMARK   82  A    between atoms: _187  and  _188
REMARK   83  A    between atoms: _187  and  _190
REMARK   84  A    between atoms: _190  and  _191
REMARK   85  A    between atoms: _194  and  _196
REMARK   86  A    between atoms: _196  and  _197
REMARK   87  A    between atoms: _196  and  _199
REMARK   88  A    between atoms: _199  and  _200
REMARK   89  A    between atoms: _200  and  _201
REMARK   90  A    between atoms: _201  and  _202
REMARK   91  A    between atoms: _211  and  _213
REMARK   92  A    between atoms: _213  and  _214
REMARK   93  A    between atoms: _213  and  _216
REMARK   94  A    between atoms: _216  and  _217
REMARK   95  A    between atoms: _220  and  _222
REMARK   96  A    between atoms: _222  and  _223
REMARK   97  A    between atoms: _225  and  _227
REMARK   98  A    between atoms: _227  and  _228
REMARK   99  A    between atoms: _227  and  _230
REMARK  100  A    between atoms: _230  and  _231
REMARK  101  A    between atoms: _231  and  _232
REMARK  102  A    between atoms: _235  and  _237
REMARK  103  A    between atoms: _237  and  _238
REMARK  104  A    between atoms: _237  and  _240
REMARK  105  A    between atoms: _240  and  _241
REMARK  106  A    between atoms: _244  and  _246
REMARK  107  A    between atoms: _246  and  _247
REMARK  108  A    between atoms: _250  and  _252
REMARK  109  A    between atoms: _252  and  _253
REMARK  110  A    between atoms: _252  and  _255
REMARK  111  A    between atoms: _255  and  _256
REMARK  112  A    between atoms: _261  and  _262
REMARK  113  A    between atoms: _261  and  _264
REMARK  114  A    between atoms: _264  and  _265
REMARK  115  A    between atoms: _267  and  _269
REMARK  116  A    between atoms: _269  and  _270
REMARK  117  A    between atoms: _273  and  _275
REMARK  118  A    between atoms: _275  and  _276
REMARK  119  A    between atoms: _275  and  _278
REMARK  120  A    between atoms: _278  and  _279
REMARK  121  A    between atoms: _282  and  _284
REMARK  122  A    between atoms: _284  and  _285
REMARK  123  A    between atoms: _284  and  _287
REMARK  124  A    between atoms: _287  and  _288
REMARK  125  A    between atoms: _291  and  _293
REMARK  126  A    between atoms: _293  and  _294
REMARK  127  A    between atoms: _293  and  _296
REMARK  128  A    between atoms: _296  and  _297
REMARK  129  A    between atoms: _297  and  _298
REMARK  130  A    between atoms: _298  and  _299
REMARK  131  A    between atoms: _308  and  _310
REMARK  132  A    between atoms: _310  and  _311
REMARK  133  A    between atoms: _310  and  _313
REMARK  134  A    between atoms: _316  and  _318
REMARK  135  A    between atoms: _318  and  _319
REMARK  136  A    between atoms: _318  and  _321
REMARK  137  A    between atoms: _321  and  _322
REMARK  138  A    between atoms: _322  and  _323
REMARK  139  A    between atoms: _323  and  _324
REMARK  140  A    between atoms: _333  and  _335
REMARK  141  A    between atoms: _335  and  _336
REMARK  142  A    between atoms: _338  and  _340
REMARK  143  A    between atoms: _340  and  _341
REMARK  144  A    between atoms: _340  and  _343
REMARK  145  A    between atoms: _343  and  _344
REMARK  146  A    between atoms: _350  and  _352
REMARK  147  A    between atoms: _352  and  _353
REMARK  148  A    between atoms: _353  and  _354
REMARK  149  A    between atoms: _353  and  _355
REMARK  150  A    between atoms: _354  and  MG_637
REMARK  151  A    between atoms: _355  and  _357
REMARK  152  A    between atoms: _357  and  _358
REMARK  153  A    between atoms: _357  and  _360
REMARK  154  A    between atoms: _360  and  _361
REMARK  155  A    between atoms: _361  and  _362
REMARK  156  A    between atoms: _362  and  _363
REMARK  157  A    between atoms: _372  and  _374
REMARK  158  A    between atoms: _374  and  _375
REMARK  159  A    between atoms: _374  and  _377
REMARK  160  A    between atoms: _377  and  _378
REMARK  161  A    between atoms: _378  and  _379
REMARK  162  A    between atoms: _384  and  _386
REMARK  163  A    between atoms: _386  and  _387
REMARK  164  A    between atoms: _386  and  _389
REMARK  165  A    between atoms: _389  and  _390
REMARK  166  A    between atoms: _390  and  _391
REMARK  167  A    between atoms: _391  and  _392
REMARK  168  A    between atoms: _392  and  _393
REMARK  169  A    between atoms: _397  and  _399
REMARK  170  A    between atoms: _399  and  _400
REMARK  171  A    between atoms: _399  and  _402
REMARK  172  A    between atoms: _402  and  _403
REMARK  173  A    between atoms: _403  and  _404
REMARK  174  A    between atoms: _409  and  _411
REMARK  175  A    between atoms: _411  and  _412
REMARK  176  A    between atoms: _411  and  _414
REMARK  177  A    between atoms: _414  and  _415
REMARK  178  A    between atoms: _418  and  _420
REMARK  179  A    between atoms: _420  and  _421
REMARK  180  A    between atoms: _420  and  _423
REMARK  181  A    between atoms: _423  and  _424
REMARK  182  A    between atoms: _424  and  _425
REMARK  183  A    between atoms: _428  and  _430
REMARK  184  A    between atoms: _430  and  _431
REMARK  185  A    between atoms: _430  and  _433
REMARK  186  A    between atoms: _434  and  _435
REMARK  187  A    between atoms: _435  and  _436
REMARK  188  A    between atoms: _445  and  _447
REMARK  189  A    between atoms: _447  and  _448
REMARK  190  A    between atoms: _447  and  _450
REMARK  191  A    between atoms: _450  and  _451
REMARK  192  A    between atoms: _454  and  _456
REMARK  193  A    between atoms: _456  and  _457
REMARK  194  A    between atoms: _456  and  _459
REMARK  195  A    between atoms: _459  and  _460
REMARK  196  A    between atoms: _460  and  _461
REMARK  197  A    between atoms: _464  and  _466
REMARK  198  A    between atoms: _466  and  _467
REMARK  199  A    between atoms: _466  and  _469
REMARK  200  A    between atoms: _469  and  _470
REMARK  201  A    between atoms: _476  and  _478
REMARK  202  A    between atoms: _478  and  _479
REMARK  203  A    between atoms: _478  and  _481
REMARK  204  A    between atoms: _481  and  _482
REMARK  205  A    between atoms: _485  and  _487
REMARK  206  A    between atoms: _487  and  _488
REMARK  207  A    between atoms: _487  and  _490
REMARK  208  A    between atoms: _490  and  _491
REMARK  209  A    between atoms: _491  and  _492
REMARK  210  A    between atoms: _497  and  _499
REMARK  211  A    between atoms: _499  and  _500
REMARK  212  A    between atoms: _499  and  _502
REMARK  213  A    between atoms: _502  and  _503
REMARK  214  A    between atoms: _503  and  _504
REMARK  215  A    between atoms: _504  and  _505
REMARK  216  A    between atoms: _505  and  _506
REMARK  217  A    between atoms: _510  and  _512
REMARK  218  A    between atoms: _512  and  _513
REMARK  219  A    between atoms: _512  and  _515
REMARK  220  A    between atoms: _515  and  _516
REMARK  221  A    between atoms: _519  and  _521
REMARK  222  A    between atoms: _521  and  _522
REMARK  223  A    between atoms: _521  and  _524
REMARK  224  A    between atoms: _524  and  _525
REMARK  225  A    between atoms: _525  and  _526
REMARK  226  A    between atoms: _526  and  _527
REMARK  227  A    between atoms: _527  and  _528
REMARK  228  A    between atoms: _532  and  _534
REMARK  229  A    between atoms: _534  and  _535
REMARK  230  A    between atoms: _534  and  _537
REMARK  231  A    between atoms: _537  and  _538
REMARK  232  A    between atoms: _538  and  _539
REMARK  233  A    between atoms: _539  and  _540
REMARK  234  A    between atoms: _549  and  _551
REMARK  235  A    between atoms: _551  and  _552
REMARK  236  A    between atoms: _551  and  _554
REMARK  237  A    between atoms: _554  and  _555
REMARK  238  A    between atoms: _558  and  _560
REMARK  239  A    between atoms: _560  and  _561
REMARK  240  A    between atoms: _563  and  _565
REMARK  241  A    between atoms: _565  and  _566
REMARK  242  A    between atoms: _565  and  _568
REMARK  243  A    between atoms: _568  and  _569
REMARK  244  A    between atoms: _569  and  _570
REMARK  245  A    between atoms: _573  and  _575
REMARK  246  A    between atoms: _575  and  _576
REMARK  247  A    between atoms: _575  and  _578
REMARK  248  A    between atoms: _578  and  _579
REMARK  249  A    between atoms: _584  and  _586
REMARK  250  A    between atoms: _586  and  _587
REMARK  251  A    between atoms: _589  and  _591
REMARK  252  A    between atoms: _591  and  _592
REMARK  253  A    between atoms: _591  and  _594
REMARK  254  A    between atoms: _594  and  _595
REMARK  255  A    between atoms: _598  and  _600
REMARK  256  A    between atoms: _600  and  _601
REMARK  257  A    between atoms: _603  and  _605
REMARK  258  A    between atoms: _605  and  _606
REMARK  259  A    between atoms: _605  and  _608
REMARK  260  A    between atoms: _608  and  _609
REMARK  261  A    between atoms: _609  and  _610
REMARK  262  A    between atoms: _610  and  _611
REMARK  263  A    between atoms: _611  and  _612
REMARK  264  A    between atoms: _616  and  _618
REMARK  265  A    between atoms: _618  and  _619
REMARK  266  A    between atoms: _618  and  _621
REMARK  267  A    between atoms: _621  and  _622
REMARK  268  A    between atoms: _625  and  _627
REMARK  269  A    between atoms: _627  and  _628
REMARK  270  A    between atoms: _627  and  _630
REMARK  271  A    between atoms: _630  and  _631
REMARK                            x       y       z     vdW  Elec       q    Type
REMARK                         _______ _______ _______ _____ _____    ______ ____
ROOT
ATOM      1  C   GLY A   3      40.480 -10.624  60.789  0.00  0.00    +0.243 C 
ATOM      2  O   GLY A   3      39.480 -10.549  61.509  0.00  0.00    -0.273 OA
ATOM      3  N   MET A   4      40.605 -10.016  59.643  0.00  0.00    -0.294 N 
ATOM      4  H   MET A   4      41.485 -10.121  59.100  0.00  0.00    +0.150 HD
ENDROOT
BRANCH   3   5
ATOM      5  CA  MET A   4      39.519  -9.184  59.109  0.00  0.00    +0.172 C 
BRANCH   5   6
ATOM      6  C   MET A   4      39.781  -9.018  57.606  0.00  0.00    +0.245 C 
ATOM      7  O   MET A   4      40.913  -9.055  57.132  0.00  0.00    -0.273 OA
ATOM      8  N   THR A   5      38.690  -8.754  56.891  0.00  0.00    -0.295 N 
ATOM      9  H   THR A   5      37.784  -8.688  57.398  0.00  0.00    +0.150 HD
BRANCH   8  10
ATOM     10  CA  THR A   5      38.675  -8.550  55.443  0.00  0.00    +0.176 C 
BRANCH  10  11
ATOM     11  C   THR A   5      38.023  -7.225  55.127  0.00  0.00    +0.243 C 
ATOM     12  O   THR A   5      36.995  -6.899  55.753  0.00  0.00    -0.273 OA
ATOM     13  N   VAL A   6      38.539  -6.458  54.194  0.00  0.00    -0.298 N 
ATOM     14  H   VAL A   6      39.381  -6.807  53.693  0.00  0.00    +0.150 HD
BRANCH  13  15
ATOM     15  CA  VAL A   6      38.013  -5.147  53.809  0.00  0.00    +0.137 C 
BRANCH  15  16
ATOM     16  CB  VAL A   6      38.982  -4.037  54.219  0.00  0.00    +0.026 C 
ATOM     17  CG2 VAL A   6      39.314  -4.080  55.615  0.00  0.00    +0.002 C 
ATOM     18  CG1 VAL A   6      38.323  -2.636  53.959  0.00  0.00    +0.002 C 
ENDBRANCH  15  16
BRANCH  15  19
ATOM     19  C   VAL A   6      37.786  -5.099  52.307  0.00  0.00    +0.227 C 
ATOM     20  O   VAL A   6      38.669  -5.517  51.540  0.00  0.00    -0.286 OA
ENDBRANCH  15  19
ENDBRANCH  13  15
ENDBRANCH  10  11
BRANCH  10  21
ATOM     21  CB  THR A   5      37.974  -9.739  54.741  0.00  0.00    +0.137 C 
ATOM     22  CG2 THR A   5      37.865  -9.595  53.241  0.00  0.00    +0.034 C 
BRANCH  21  23
ATOM     23  OG1 THR A   5      38.705 -10.935  55.068  0.00  0.00    -0.382 OA
ATOM     24  HG1 THR A   5      39.638 -10.848  54.748  0.00  0.00    +0.210 HD
ENDBRANCH  21  23
ENDBRANCH  10  21
ENDBRANCH   8  10
ENDBRANCH   5   6
BRANCH   5  25
ATOM     25  CB  MET A   4      39.401  -7.869  59.809  0.00  0.00    +0.009 C 
ATOM     26  CG  MET A   4      40.442  -6.957  59.605  0.00  0.00    +0.028 C 
BRANCH  26  27
ATOM     27  SD  MET A   4      40.295  -5.336  60.532  0.00  0.00    -0.113 S 
ATOM     28  CE  MET A   4      38.949  -4.751  59.767  0.00  0.00    +0.074 C 
ENDBRANCH  26  27
ENDBRANCH   5  25
ENDBRANCH   3   5
BRANCH   1  29
ATOM     29  CA  GLY A   3      41.619 -11.519  61.236  0.00  0.00    +0.176 C 
BRANCH  29  31
ATOM     30  C   VAL A   2      43.061 -11.614  63.130  0.00  0.00    +0.241 C 
ATOM     31  N   GLY A   3      41.880 -11.372  62.642  0.00  0.00    -0.295 N 
ATOM     32  H   GLY A   3      41.115 -11.068  63.277  0.00  0.00    +0.150 HD
ATOM     33  O   VAL A   2      43.981 -11.995  62.430  0.00  0.00    -0.273 OA
BRANCH  30  34
ATOM     34  CA  VAL A   2      43.289 -11.403  64.631  0.00  0.00    +0.148 C 
BRANCH  34  37
ATOM     35  C   ILE A   1      42.177  -9.640  65.849  0.00  0.00    +0.238 C 
ATOM     36  O   ILE A   1      43.091  -8.862  65.699  0.00  0.00    -0.274 OA
ATOM     37  N   VAL A   2      42.167 -10.855  65.353  0.00  0.00    -0.297 N 
ATOM     38  H   VAL A   2      41.320 -11.444  65.485  0.00  0.00    +0.150 HD
BRANCH  35  39
ATOM     39  CA  ILE A   1      40.972  -9.221  66.659  0.00  0.00    +0.145 C 
BRANCH  39  40
ATOM     40  CB  ILE A   1      40.041  -8.279  65.867  0.00  0.00    +0.025 C 
ATOM     41  CG2 ILE A   1      39.838  -8.611  64.420  0.00  0.00    +0.002 C 
BRANCH  40  42
ATOM     42  CG1 ILE A   1      38.669  -8.158  66.538  0.00  0.00    +0.002 C 
ATOM     43  CD1 ILE A   1      37.908  -9.512  66.689  0.00  0.00    +0.000 C 
ENDBRANCH  40  42
ENDBRANCH  39  40
BRANCH  39  44
ATOM     44  N   ILE A   1      41.411  -8.533  67.891  0.00  0.00    -0.238 NA
ATOM     45  H   ILE A   1      41.278  -7.508  68.010  0.00  0.00    +0.142 HD
ENDBRANCH  39  44
ENDBRANCH  35  39
ENDBRANCH  34  37
BRANCH  34  46
ATOM     46  CB  VAL A   2      43.832 -12.698  65.266  0.00  0.00    +0.027 C 
ATOM     47  CG2 VAL A   2      44.373 -12.369  66.674  0.00  0.00    +0.002 C 
ATOM     48  CG1 VAL A   2      42.790 -13.734  65.256  0.00  0.00    +0.002 C 
ENDBRANCH  34  46
ENDBRANCH  30  34
ENDBRANCH  29  31
ENDBRANCH   1  29
TORSDOF 20
REMARK  Name = ../refined-set-2016/2xbp/2xbp_pocket.pdb
REMARK  271 active torsions:
REMARK  status: ('A' for Active; 'I' for Inactive)
REMARK    1  A    between atoms: _1  and  _3
REMARK    2  A    between atoms: _3  and  _4
REMARK    3  A    between atoms: _3  and  _6
REMARK    4  A    between atoms: _6  and  _7
REMARK    5  A    between atoms: _7  and  _8
REMARK    6  A    between atoms: _8  and  _9
REMARK    7  A    between atoms: _9  and  _10
REMARK    8  A    between atoms: _14  and  _16
REMARK    9  A    between atoms: _16  and  _17
REMARK   10  A    between atoms: _16  and  _19
REMARK   11  A    between atoms: _19  and  _20
REMARK   12  A    between atoms: _20  and  _21
REMARK   13  A    between atoms: _21  and  _22
REMARK   14  A    between atoms: _22  and  _23
REMARK   15  A    between atoms: _27  and  _29
REMARK   16  A    between atoms: _29  and  _30
REMARK   17  A    between atoms: _29  and  _32
REMARK   18  A    between atoms: _32  and  _33
REMARK   19  A    between atoms: _36  and  _38
REMARK   20  A    between atoms: _38  and  _39
REMARK   21  A    between atoms: _38  and  _41
REMARK   22  A    between atoms: _41  and  _42
REMARK   23  A    between atoms: _45  and  _47
REMARK   24  A    between atoms: _47  and  _48
REMARK   25  A    between atoms: _47  and  _50
REMARK   26  A    between atoms: _53  and  _55
REMARK   27  A    between atoms: _55  and  _56
REMARK   28  A    between atoms: _58  and  _60
REMARK   29  A    between atoms: _60  and  _61
REMARK   30  A    between atoms: _60  and  _63
REMARK   31  A    between atoms: _64  and  _65
REMARK   32  A    between atoms: _67  and  _69
REMARK   33  A    between atoms: _69  and  _70
REMARK   34  A    between atoms: _69  and  _72
REMARK   35  A    between atoms: _72  and  _73
REMARK   36  A    between atoms: _76  and  _78
REMARK   37  A    between atoms: _78  and  _79
REMARK   38  A    between atoms: _78  and  _81
REMARK   39  A    between atoms: _84  and  _86
REMARK   40  A    between atoms: _86  and  _87
REMARK   41  A    between atoms: _86  and  _89
REMARK   42  A    between atoms: _89  and  _90
REMARK   43  A    between atoms: _93  and  _95
REMARK   44  A    between atoms: _95  and  _96
REMARK   45  A    between atoms: _95  and  _98
REMARK   46  A    between atoms: _98  and  _99
REMARK   47  A    between atoms: _99  and  _100
REMARK   48  A    between atoms: _103  and  _105
REMARK   49  A    between atoms: _105  and  _106
REMARK   50  A    between atoms: _105  and  _108
REMARK   51  A    between atoms: _108  and  _109
REMARK   52  A    between atoms: _112  and  _114
REMARK   53  A    between atoms: _114  and  _115
REMARK   54  A    between atoms: _114  and  _117
REMARK   55  A    between atoms: _120  and  _122
REMARK   56  A    between atoms: _122  and  _123
REMARK   57  A    between atoms: _122  and  _125
REMARK   58  A    between atoms: _128  and  _130
REMARK   59  A    between atoms: _130  and  _131
REMARK   60  A    between atoms: _130  and  _133
REMARK   61  A    between atoms: _134  and  _135
REMARK   62  A    between atoms: _138  and  _140
REMARK   63  A    between atoms: _140  and  _141
REMARK   64  A    between atoms: _140  and  _143
REMARK   65  A    between atoms: _143  and  _144
REMARK   66  A    between atoms: _144  and  _145
REMARK   67  A    between atoms: _150  and  _152
REMARK   68  A    between atoms: _152  and  _153
REMARK   69  A    between atoms: _152  and  _155
REMARK   70  A    between atoms: _155  and  _156
REMARK   71  A    between atoms: _159  and  _161
REMARK   72  A    between atoms: _161  and  _162
REMARK   73  A    between atoms: _161  and  _164
REMARK   74  A    between atoms: _164  and  _165
REMARK   75  A    between atoms: _168  and  _170
REMARK   76  A    between atoms: _170  and  _171
REMARK   77  A    between atoms: _170  and  _173
REMARK   78  A    between atoms: _173  and  _174
REMARK   79  A    between atoms: _174  and  _175
REMARK   80  A    between atoms: _175  and  _176
REMARK   81  A    between atoms: _185  and  _187
REMARK   82  A    between atoms: _187  and  _188
REMARK   83  A    between atoms: _187  and  _190
REMARK   84  A    between atoms: _190  and  _191
REMARK   85  A    between atoms: _194  and  _196
REMARK   86  A    between atoms: _196  and  _197
REMARK   87  A    between atoms: _196  and  _199
REMARK   88  A    between atoms: _199  and  _200
REMARK   89  A    between atoms: _200  and  _201
REMARK   90  A    between atoms: _201  and  _202
REMARK   91  A    between atoms: _211  and  _213
REMARK   92  A    between atoms: _213  and  _214
REMARK   93  A    between atoms: _213  and  _216
REMARK   94  A    between atoms: _216  and  _217
REMARK   95  A    between atoms: _220  and  _222
REMARK   96  A    between atoms: _222  and  _223
REMARK   97  A    between atoms: _225  and  _227
REMARK   98  A    between atoms: _227  and  _228
REMARK   99  A    between atoms: _227  and  _230
REMARK  100  A    between atoms: _230  and  _231
REMARK  101  A    between atoms: _231  and  _232
REMARK  102  A    between atoms: _235  and  _237
REMARK  103  A    between atoms: _237  and  _238
REMARK  104  A    between atoms: _237  and  _240
REMARK  105  A    between atoms: _240  and  _241
REMARK  106  A    between atoms: _244  and  _246
REMARK  107  A    between atoms: _246  and  _247
REMARK  108  A    between atoms: _250  and  _252
REMARK  109  A    between atoms: _252  and  _253
REMARK  110  A    between atoms: _252  and  _255
REMARK  111  A    between atoms: _255  and  _256
REMARK  112  A    between atoms: _261  and  _262
REMARK  113  A    between atoms: _261  and  _264
REMARK  114  A    between atoms: _264  and  _265
REMARK  115  A    between atoms: _267  and  _269
REMARK  116  A    between atoms: _269  and  _270
REMARK  117  A    between atoms: _273  and  _275
REMARK  118  A    between atoms: _275  and  _276
REMARK  119  A    between atoms: _275  and  _278
REMARK  120  A    between atoms: _278  and  _279
REMARK  121  A    between atoms: _282  and  _284
REMARK  122  A    between atoms: _284  and  _285
REMARK  123  A    between atoms: _284  and  _287
REMARK  124  A    between atoms: _287  and  _288
REMARK  125  A    between atoms: _291  and  _293
REMARK  126  A    between atoms: _293  and  _294
REMARK  127  A    between atoms: _293  and  _296
REMARK  128  A    between atoms: _296  and  _297
REMARK  129  A    between atoms: _297  and  _298
REMARK  130  A    between atoms: _298  and  _299
REMARK  131  A    between atoms: _308  and  _310
REMARK  132  A    between atoms: _310  and  _311
REMARK  133  A    between atoms: _310  and  _313
REMARK  134  A    between atoms: _316  and  _318
REMARK  135  A    between atoms: _318  and  _319
REMARK  136  A    between atoms: _318  and  _321
REMARK  137  A    between atoms: _321  and  _322
REMARK  138  A    between atoms: _322  and  _323
REMARK  139  A    between atoms: _323  and  _324
REMARK  140  A    between atoms: _333  and  _335
REMARK  141  A    between atoms: _335  and  _336
REMARK  142  A    between atoms: _338  and  _340
REMARK  143  A    between atoms: _340  and  _341
REMARK  144  A    between atoms: _340  and  _343
REMARK  145  A    between atoms: _343  and  _344
REMARK  146  A    between atoms: _350  and  _352
REMARK  147  A    between atoms: _352  and  _353
REMARK  148  A    between atoms: _353  and  _354
REMARK  149  A    between atoms: _353  and  _355
REMARK  150  A    between atoms: _354  and  MG_637
REMARK  151  A    between atoms: _355  and  _357
REMARK  152  A    between atoms: _357  and  _358
REMARK  153  A    between atoms: _357  and  _360
REMARK  154  A    between atoms: _360  and  _361
REMARK  155  A    between atoms: _361  and  _362
REMARK  156  A    between atoms: _362  and  _363
REMARK  157  A    between atoms: _372  and  _374
REMARK  158  A    between atoms: _374  and  _375
REMARK  159  A    between atoms: _374  and  _377
REMARK  160  A    between atoms: _377  and  _378
REMARK  161  A    between atoms: _378  and  _379
REMARK  162  A    between atoms: _384  and  _386
REMARK  163  A    between atoms: _386  and  _387
REMARK  164  A    between atoms: _386  and  _389
REMARK  165  A    between atoms: _389  and  _390
REMARK  166  A    between atoms: _390  and  _391
REMARK  167  A    between atoms: _391  and  _392
REMARK  168  A    between atoms: _392  and  _393
REMARK  169  A    between atoms: _397  and  _399
REMARK  170  A    between atoms: _399  and  _400
REMARK  171  A    between atoms: _399  and  _402
REMARK  172  A    between atoms: _402  and  _403
REMARK  173  A    between atoms: _403  and  _404
REMARK  174  A    between atoms: _409  and  _411
REMARK  175  A    between atoms: _411  and  _412
REMARK  176  A    between atoms: _411  and  _414
REMARK  177  A    between atoms: _414  and  _415
REMARK  178  A    between atoms: _418  and  _420
REMARK  179  A    between atoms: _420  and  _421
REMARK  180  A    between atoms: _420  and  _423
REMARK  181  A    between atoms: _423  and  _424
REMARK  182  A    between atoms: _424  and  _425
REMARK  183  A    between atoms: _428  and  _430
REMARK  184  A    between atoms: _430  and  _431
REMARK  185  A    between atoms: _430  and  _433
REMARK  186  A    between atoms: _434  and  _435
REMARK  187  A    between atoms: _435  and  _436
REMARK  188  A    between atoms: _445  and  _447
REMARK  189  A    between atoms: _447  and  _448
REMARK  190  A    between atoms: _447  and  _450
REMARK  191  A    between atoms: _450  and  _451
REMARK  192  A    between atoms: _454  and  _456
REMARK  193  A    between atoms: _456  and  _457
REMARK  194  A    between atoms: _456  and  _459
REMARK  195  A    between atoms: _459  and  _460
REMARK  196  A    between atoms: _460  and  _461
REMARK  197  A    between atoms: _464  and  _466
REMARK  198  A    between atoms: _466  and  _467
REMARK  199  A    between atoms: _466  and  _469
REMARK  200  A    between atoms: _469  and  _470
REMARK  201  A    between atoms: _476  and  _478
REMARK  202  A    between atoms: _478  and  _479
REMARK  203  A    between atoms: _478  and  _481
REMARK  204  A    between atoms: _481  and  _482
REMARK  205  A    between atoms: _485  and  _487
REMARK  206  A    between atoms: _487  and  _488
REMARK  207  A    between atoms: _487  and  _490
REMARK  208  A    between atoms: _490  and  _491
REMARK  209  A    between atoms: _491  and  _492
REMARK  210  A    between atoms: _497  and  _499
REMARK  211  A    between atoms: _499  and  _500
REMARK  212  A    between atoms: _499  and  _502
REMARK  213  A    between atoms: _502  and  _503
REMARK  214  A    between atoms: _503  and  _504
REMARK  215  A    between atoms: _504  and  _505
REMARK  216  A    between atoms: _505  and  _506
REMARK  217  A    between atoms: _510  and  _512
REMARK  218  A    between atoms: _512  and  _513
REMARK  219  A    between atoms: _512  and  _515
REMARK  220  A    between atoms: _515  and  _516
REMARK  221  A    between atoms: _519  and  _521
REMARK  222  A    between atoms: _521  and  _522
REMARK  223  A    between atoms: _521  and  _524
REMARK  224  A    between atoms: _524  and  _525
REMARK  225  A    between atoms: _525  and  _526
REMARK  226  A    between atoms: _526  and  _527
REMARK  227  A    between atoms: _527  and  _528
REMARK  228  A    between atoms: _532  and  _534
REMARK  229  A    between atoms: _534  and  _535
REMARK  230  A    between atoms: _534  and  _537
REMARK  231  A    between atoms: _537  and  _538
REMARK  232  A    between atoms: _538  and  _539
REMARK  233  A    between atoms: _539  and  _540
REMARK  234  A    between atoms: _549  and  _551
REMARK  235  A    between atoms: _551  and  _552
REMARK  236  A    between atoms: _551  and  _554
REMARK  237  A    between atoms: _554  and  _555
REMARK  238  A    between atoms: _558  and  _560
REMARK  239  A    between atoms: _560  and  _561
REMARK  240  A    between atoms: _563  and  _565
REMARK  241  A    between atoms: _565  and  _566
REMARK  242  A    between atoms: _565  and  _568
REMARK  243  A    between atoms: _568  and  _569
REMARK  244  A    between atoms: _569  and  _570
REMARK  245  A    between atoms: _573  and  _575
REMARK  246  A    between atoms: _575  and  _576
REMARK  247  A    between atoms: _575  and  _578
REMARK  248  A    between atoms: _578  and  _579
REMARK  249  A    between atoms: _584  and  _586
REMARK  250  A    between atoms: _586  and  _587
REMARK  251  A    between atoms: _589  and  _591
REMARK  252  A    between atoms: _591  and  _592
REMARK  253  A    between atoms: _591  and  _594
REMARK  254  A    between atoms: _594  and  _595
REMARK  255  A    between atoms: _598  and  _600
REMARK  256  A    between atoms: _600  and  _601
REMARK  257  A    between atoms: _603  and  _605
REMARK  258  A    between atoms: _605  and  _606
REMARK  259  A    between atoms: _605  and  _608
REMARK  260  A    between atoms: _608  and  _609
REMARK  261  A    between atoms: _609  and  _610
REMARK  262  A    between atoms: _610  and  _611
REMARK  263  A    between atoms: _611  and  _612
REMARK  264  A    between atoms: _616  and  _618
REMARK  265  A    between atoms: _618  and  _619
REMARK  266  A    between atoms: _618  and  _621
REMARK  267  A    between atoms: _621  and  _622
REMARK  268  A    between atoms: _625  and  _627
REMARK  269  A    between atoms: _627  and  _628
REMARK  270  A    between atoms: _627  and  _630
REMARK  271  A    between atoms: _630  and  _631
REMARK                            x       y       z     vdW  Elec       q    Type
REMARK                         _______ _______ _______ _____ _____    ______ ____
ROOT
ATOM      1  C   ILE A   3      34.312 -11.330  61.265  0.00  0.00    +0.241 C 
ATOM      2  O   ILE A   3      33.152 -11.169  61.689  0.00  0.00    -0.273 OA
ATOM      3  N   VAL A   4      34.886 -12.514  61.211  0.00  0.00    -0.297 N 
ATOM      4  H   VAL A   4      35.837 -12.585  60.797  0.00  0.00    +0.150 HD
ENDROOT
BRANCH   3   5
ATOM      5  CA  VAL A   4      34.253 -13.724  61.702  0.00  0.00    +0.149 C 
BRANCH   5   6
ATOM      6  C   VAL A   4      34.847 -14.012  63.074  0.00  0.00    +0.241 C 
ATOM      7  N   VAL A   5      34.003 -14.193  64.071  0.00  0.00    -0.297 N 
ATOM      8  H   VAL A   5      32.988 -14.192  63.846  0.00  0.00    +0.150 HD
ATOM      9  O   VAL A   4      36.102 -14.102  63.213  0.00  0.00    -0.273 OA
BRANCH   7  10
ATOM     10  CA  VAL A   5      34.384 -14.396  65.471  0.00  0.00    +0.149 C 
BRANCH  10  11
ATOM     11  C   VAL A   5      33.497 -15.447  66.121  0.00  0.00    +0.241 C 
ATOM     12  N   GLU A   6      33.926 -15.913  67.299  0.00  0.00    -0.295 N 
ATOM     13  H   GLU A   6      34.889 -15.686  67.618  0.00  0.00    +0.150 HD
ATOM     14  O   VAL A   5      32.412 -15.779  65.632  0.00  0.00    -0.273 OA
BRANCH  12  15
ATOM     15  CA  GLU A   6      33.082 -16.720  68.130  0.00  0.00    +0.160 C 
BRANCH  15  16
ATOM     16  CB  GLU A   6      33.837 -17.352  69.303  0.00  0.00    +0.008 C 
ATOM     17  CG  GLU A   6      34.421 -16.418  70.347  0.00  0.00    +0.084 C 
BRANCH  17  18
ATOM     18  CD  GLU A   6      35.228 -17.085  71.493  0.00  0.00    +0.388 C 
ATOM     19  OE2 GLU A   6      35.482 -16.426  72.515  0.00  0.00    -0.241 OA
ATOM     20  OE1 GLU A   6      35.589 -18.252  71.373  0.00  0.00    -0.241 OA
ENDBRANCH  17  18
ENDBRANCH  15  16
BRANCH  15  21
ATOM     21  C   GLU A   6      31.884 -15.913  68.645  0.00  0.00    +0.231 C 
ATOM     22  O   GLU A   6      31.965 -14.675  68.826  0.00  0.00    -0.286 OA
ENDBRANCH  15  21
ENDBRANCH  12  15
ENDBRANCH  10  11
BRANCH  10  23
ATOM     23  CB  VAL A   5      34.396 -13.086  66.291  0.00  0.00    +0.027 C 
ATOM     24  CG2 VAL A   5      33.000 -12.496  66.351  0.00  0.00    +0.002 C 
ATOM     25  CG1 VAL A   5      35.450 -12.109  65.764  0.00  0.00    +0.002 C 
ENDBRANCH  10  23
ENDBRANCH   7  10
ENDBRANCH   5   6
BRANCH   5  26
ATOM     26  CB  VAL A   4      34.428 -14.892  60.753  0.00  0.00    +0.027 C 
ATOM     27  CG2 VAL A   4      33.896 -16.195  61.330  0.00  0.00    +0.002 C 
ATOM     28  CG1 VAL A   4      33.730 -14.574  59.395  0.00  0.00    +0.002 C 
ENDBRANCH   5  26
ENDBRANCH   3   5
BRANCH   1  29
ATOM     29  CA  ILE A   3      35.051 -10.129  60.772  0.00  0.00    +0.149 C 
BRANCH  29  31
ATOM     30  C   GLU A   2      34.924  -9.160  58.499  0.00  0.00    +0.241 C 
ATOM     31  N   ILE A   3      34.337  -9.559  59.615  0.00  0.00    -0.297 N 
ATOM     32  H   ILE A   3      33.303  -9.464  59.681  0.00  0.00    +0.150 HD
ATOM     33  O   GLU A   2      36.142  -9.291  58.280  0.00  0.00    -0.273 OA
BRANCH  30  34
ATOM     34  CA  GLU A   2      34.025  -8.519  57.461  0.00  0.00    +0.149 C 
BRANCH  34  37
ATOM     35  C   LEU A   1      33.913  -6.089  57.198  0.00  0.00    +0.239 C 
ATOM     36  O   LEU A   1      32.723  -6.074  57.534  0.00  0.00    -0.274 OA
ATOM     37  N   GLU A   2      34.579  -7.229  57.141  0.00  0.00    -0.297 N 
ATOM     38  H   GLU A   2      35.575  -7.192  56.844  0.00  0.00    +0.150 HD
BRANCH  35  39
ATOM     39  CA  LEU A   1      34.581  -4.807  56.871  0.00  0.00    +0.149 C 
BRANCH  39  40
ATOM     40  N   LEU A   1      33.730  -4.007  56.009  0.00  0.00    -0.238 NA
ATOM     41  H   LEU A   1      32.958  -3.464  56.446  0.00  0.00    +0.142 HD
ENDBRANCH  39  40
BRANCH  39  42
ATOM     42  CB  LEU A   1      34.900  -4.085  58.162  0.00  0.00    +0.048 C 
BRANCH  42  43
ATOM     43  CG  LEU A   1      35.475  -2.830  58.187  0.00  0.00    -0.042 C 
ATOM     44  CD2 LEU A   1      35.905  -2.331  59.605  0.00  0.00    +0.026 C 
ATOM     45  CD1 LEU A   1      36.117  -2.241  57.227  0.00  0.00    -0.009 C 
ENDBRANCH  42  43
ENDBRANCH  39  42
ENDBRANCH  35  39
ENDBRANCH  34  37
BRANCH  34  46
ATOM     46  CB  GLU A   2      33.961  -9.404  56.221  0.00  0.00    +0.041 C 
BRANCH  46  47
ATOM     47  CG  GLU A   2      32.985  -8.905  55.207  0.00  0.00    +0.116 C 
BRANCH  47  48
ATOM     48  CD  GLU A   2      33.004  -9.742  53.968  0.00  0.00    +0.365 C 
ATOM     49  OE2 GLU A   2      32.330 -10.764  53.900  0.00  0.00    -0.246 OA
ATOM     50  OE1 GLU A   2      33.687  -9.418  53.026  0.00  0.00    -0.246 OA
ENDBRANCH  47  48
ENDBRANCH  46  47
ENDBRANCH  34  46
ENDBRANCH  30  34
ENDBRANCH  29  31
BRANCH  29  51
ATOM     51  CB  ILE A   3      35.220  -9.099  61.874  0.00  0.00    +0.027 C 
ATOM     52  CG2 ILE A   3      36.065  -9.668  63.010  0.00  0.00    +0.002 C 
BRANCH  51  53
ATOM     53  CG1 ILE A   3      35.796  -7.809  61.361  0.00  0.00    +0.002 C 
ATOM     54  CD1 ILE A   3      35.090  -6.600  61.779  0.00  0.00    +0.000 C 
ENDBRANCH  51  53
ENDBRANCH  29  51
ENDBRANCH   1  29
TORSDOF 23
REMARK  Name = ../refined-set-2016/2xbp/2xbp_pocket.pdb
REMARK  271 active torsions:
REMARK  status: ('A' for Active; 'I' for Inactive)
REMARK    1  A    between atoms: _1  and  _3
REMARK    2  A    between atoms: _3  and  _4
REMARK    3  A    between atoms: _3  and  _6
REMARK    4  A    between atoms: _6  and  _7
REMARK    5  A    between atoms: _7  and  _8
REMARK    6  A    between atoms: _8  and  _9
REMARK    7  A    between atoms: _9  and  _10
REMARK    8  A    between atoms: _14  and  _16
REMARK    9  A    between atoms: _16  and  _17
REMARK   10  A    between atoms: _16  and  _19
REMARK   11  A    between atoms: _19  and  _20
REMARK   12  A    between atoms: _20  and  _21
REMARK   13  A    between atoms: _21  and  _22
REMARK   14  A    between atoms: _22  and  _23
REMARK   15  A    between atoms: _27  and  _29
REMARK   16  A    between atoms: _29  and  _30
REMARK   17  A    between atoms: _29  and  _32
REMARK   18  A    between atoms: _32  and  _33
REMARK   19  A    between atoms: _36  and  _38
REMARK   20  A    between atoms: _38  and  _39
REMARK   21  A    between atoms: _38  and  _41
REMARK   22  A    between atoms: _41  and  _42
REMARK   23  A    between atoms: _45  and  _47
REMARK   24  A    between atoms: _47  and  _48
REMARK   25  A    between atoms: _47  and  _50
REMARK   26  A    between atoms: _53  and  _55
REMARK   27  A    between atoms: _55  and  _56
REMARK   28  A    between atoms: _58  and  _60
REMARK   29  A    between atoms: _60  and  _61
REMARK   30  A    between atoms: _60  and  _63
REMARK   31  A    between atoms: _64  and  _65
REMARK   32  A    between atoms: _67  and  _69
REMARK   33  A    between atoms: _69  and  _70
REMARK   34  A    between atoms: _69  and  _72
REMARK   35  A    between atoms: _72  and  _73
REMARK   36  A    between atoms: _76  and  _78
REMARK   37  A    between atoms: _78  and  _79
REMARK   38  A    between atoms: _78  and  _81
REMARK   39  A    between atoms: _84  and  _86
REMARK   40  A    between atoms: _86  and  _87
REMARK   41  A    between atoms: _86  and  _89
REMARK   42  A    between atoms: _89  and  _90
REMARK   43  A    between atoms: _93  and  _95
REMARK   44  A    between atoms: _95  and  _96
REMARK   45  A    between atoms: _95  and  _98
REMARK   46  A    between atoms: _98  and  _99
REMARK   47  A    between atoms: _99  and  _100
REMARK   48  A    between atoms: _103  and  _105
REMARK   49  A    between atoms: _105  and  _106
REMARK   50  A    between atoms: _105  and  _108
REMARK   51  A    between atoms: _108  and  _109
REMARK   52  A    between atoms: _112  and  _114
REMARK   53  A    between atoms: _114  and  _115
REMARK   54  A    between atoms: _114  and  _117
REMARK   55  A    between atoms: _120  and  _122
REMARK   56  A    between atoms: _122  and  _123
REMARK   57  A    between atoms: _122  and  _125
REMARK   58  A    between atoms: _128  and  _130
REMARK   59  A    between atoms: _130  and  _131
REMARK   60  A    between atoms: _130  and  _133
REMARK   61  A    between atoms: _134  and  _135
REMARK   62  A    between atoms: _138  and  _140
REMARK   63  A    between atoms: _140  and  _141
REMARK   64  A    between atoms: _140  and  _143
REMARK   65  A    between atoms: _143  and  _144
REMARK   66  A    between atoms: _144  and  _145
REMARK   67  A    between atoms: _150  and  _152
REMARK   68  A    between atoms: _152  and  _153
REMARK   69  A    between atoms: _152  and  _155
REMARK   70  A    between atoms: _155  and  _156
REMARK   71  A    between atoms: _159  and  _161
REMARK   72  A    between atoms: _161  and  _162
REMARK   73  A    between atoms: _161  and  _164
REMARK   74  A    between atoms: _164  and  _165
REMARK   75  A    between atoms: _168  and  _170
REMARK   76  A    between atoms: _170  and  _171
REMARK   77  A    between atoms: _170  and  _173
REMARK   78  A    between atoms: _173  and  _174
REMARK   79  A    between atoms: _174  and  _175
REMARK   80  A    between atoms: _175  and  _176
REMARK   81  A    between atoms: _185  and  _187
REMARK   82  A    between atoms: _187  and  _188
REMARK   83  A    between atoms: _187  and  _190
REMARK   84  A    between atoms: _190  and  _191
REMARK   85  A    between atoms: _194  and  _196
REMARK   86  A    between atoms: _196  and  _197
REMARK   87  A    between atoms: _196  and  _199
REMARK   88  A    between atoms: _199  and  _200
REMARK   89  A    between atoms: _200  and  _201
REMARK   90  A    between atoms: _201  and  _202
REMARK   91  A    between atoms: _211  and  _213
REMARK   92  A    between atoms: _213  and  _214
REMARK   93  A    between atoms: _213  and  _216
REMARK   94  A    between atoms: _216  and  _217
REMARK   95  A    between atoms: _220  and  _222
REMARK   96  A    between atoms: _222  and  _223
REMARK   97  A    between atoms: _225  and  _227
REMARK   98  A    between atoms: _227  and  _228
REMARK   99  A    between atoms: _227  and  _230
REMARK  100  A    between atoms: _230  and  _231
REMARK  101  A    between atoms: _231  and  _232
REMARK  102  A    between atoms: _235  and  _237
REMARK  103  A    between atoms: _237  and  _238
REMARK  104  A    between atoms: _237  and  _240
REMARK  105  A    between atoms: _240  and  _241
REMARK  106  A    between atoms: _244  and  _246
REMARK  107  A    between atoms: _246  and  _247
REMARK  108  A    between atoms: _250  and  _252
REMARK  109  A    between atoms: _252  and  _253
REMARK  110  A    between atoms: _252  and  _255
REMARK  111  A    between atoms: _255  and  _256
REMARK  112  A    between atoms: _261  and  _262
REMARK  113  A    between atoms: _261  and  _264
REMARK  114  A    between atoms: _264  and  _265
REMARK  115  A    between atoms: _267  and  _269
REMARK  116  A    between atoms: _269  and  _270
REMARK  117  A    between atoms: _273  and  _275
REMARK  118  A    between atoms: _275  and  _276
REMARK  119  A    between atoms: _275  and  _278
REMARK  120  A    between atoms: _278  and  _279
REMARK  121  A    between atoms: _282  and  _284
REMARK  122  A    between atoms: _284  and  _285
REMARK  123  A    between atoms: _284  and  _287
REMARK  124  A    between atoms: _287  and  _288
REMARK  125  A    between atoms: _291  and  _293
REMARK  126  A    between atoms: _293  and  _294
REMARK  127  A    between atoms: _293  and  _296
REMARK  128  A    between atoms: _296  and  _297
REMARK  129  A    between atoms: _297  and  _298
REMARK  130  A    between atoms: _298  and  _299
REMARK  131  A    between atoms: _308  and  _310
REMARK  132  A    between atoms: _310  and  _311
REMARK  133  A    between atoms: _310  and  _313
REMARK  134  A    between atoms: _316  and  _318
REMARK  135  A    between atoms: _318  and  _319
REMARK  136  A    between atoms: _318  and  _321
REMARK  137  A    between atoms: _321  and  _322
REMARK  138  A    between atoms: _322  and  _323
REMARK  139  A    between atoms: _323  and  _324
REMARK  140  A    between atoms: _333  and  _335
REMARK  141  A    between atoms: _335  and  _336
REMARK  142  A    between atoms: _338  and  _340
REMARK  143  A    between atoms: _340  and  _341
REMARK  144  A    between atoms: _340  and  _343
REMARK  145  A    between atoms: _343  and  _344
REMARK  146  A    between atoms: _350  and  _352
REMARK  147  A    between atoms: _352  and  _353
REMARK  148  A    between atoms: _353  and  _354
REMARK  149  A    between atoms: _353  and  _355
REMARK  150  A    between atoms: _354  and  MG_637
REMARK  151  A    between atoms: _355  and  _357
REMARK  152  A    between atoms: _357  and  _358
REMARK  153  A    between atoms: _357  and  _360
REMARK  154  A    between atoms: _360  and  _361
REMARK  155  A    between atoms: _361  and  _362
REMARK  156  A    between atoms: _362  and  _363
REMARK  157  A    between atoms: _372  and  _374
REMARK  158  A    between atoms: _374  and  _375
REMARK  159  A    between atoms: _374  and  _377
REMARK  160  A    between atoms: _377  and  _378
REMARK  161  A    between atoms: _378  and  _379
REMARK  162  A    between atoms: _384  and  _386
REMARK  163  A    between atoms: _386  and  _387
REMARK  164  A    between atoms: _386  and  _389
REMARK  165  A    between atoms: _389  and  _390
REMARK  166  A    between atoms: _390  and  _391
REMARK  167  A    between atoms: _391  and  _392
REMARK  168  A    between atoms: _392  and  _393
REMARK  169  A    between atoms: _397  and  _399
REMARK  170  A    between atoms: _399  and  _400
REMARK  171  A    between atoms: _399  and  _402
REMARK  172  A    between atoms: _402  and  _403
REMARK  173  A    between atoms: _403  and  _404
REMARK  174  A    between atoms: _409  and  _411
REMARK  175  A    between atoms: _411  and  _412
REMARK  176  A    between atoms: _411  and  _414
REMARK  177  A    between atoms: _414  and  _415
REMARK  178  A    between atoms: _418  and  _420
REMARK  179  A    between atoms: _420  and  _421
REMARK  180  A    between atoms: _420  and  _423
REMARK  181  A    between atoms: _423  and  _424
REMARK  182  A    between atoms: _424  and  _425
REMARK  183  A    between atoms: _428  and  _430
REMARK  184  A    between atoms: _430  and  _431
REMARK  185  A    between atoms: _430  and  _433
REMARK  186  A    between atoms: _434  and  _435
REMARK  187  A    between atoms: _435  and  _436
REMARK  188  A    between atoms: _445  and  _447
REMARK  189  A    between atoms: _447  and  _448
REMARK  190  A    between atoms: _447  and  _450
REMARK  191  A    between atoms: _450  and  _451
REMARK  192  A    between atoms: _454  and  _456
REMARK  193  A    between atoms: _456  and  _457
REMARK  194  A    between atoms: _456  and  _459
REMARK  195  A    between atoms: _459  and  _460
REMARK  196  A    between atoms: _460  and  _461
REMARK  197  A    between atoms: _464  and  _466
REMARK  198  A    between atoms: _466  and  _467
REMARK  199  A    between atoms: _466  and  _469
REMARK  200  A    between atoms: _469  and  _470
REMARK  201  A    between atoms: _476  and  _478
REMARK  202  A    between atoms: _478  and  _479
REMARK  203  A    between atoms: _478  and  _481
REMARK  204  A    between atoms: _481  and  _482
REMARK  205  A    between atoms: _485  and  _487
REMARK  206  A    between atoms: _487  and  _488
REMARK  207  A    between atoms: _487  and  _490
REMARK  208  A    between atoms: _490  and  _491
REMARK  209  A    between atoms: _491  and  _492
REMARK  210  A    between atoms: _497  and  _499
REMARK  211  A    between atoms: _499  and  _500
REMARK  212  A    between atoms: _499  and  _502
REMARK  213  A    between atoms: _502  and  _503
REMARK  214  A    between atoms: _503  and  _504
REMARK  215  A    between atoms: _504  and  _505
REMARK  216  A    between atoms: _505  and  _506
REMARK  217  A    between atoms: _510  and  _512
REMARK  218  A    between atoms: _512  and  _513
REMARK  219  A    between atoms: _512  and  _515
REMARK  220  A    between atoms: _515  and  _516
REMARK  221  A    between atoms: _519  and  _521
REMARK  222  A    between atoms: _521  and  _522
REMARK  223  A    between atoms: _521  and  _524
REMARK  224  A    between atoms: _524  and  _525
REMARK  225  A    between atoms: _525  and  _526
REMARK  226  A    between atoms: _526  and  _527
REMARK  227  A    between atoms: _527  and  _528
REMARK  228  A    between atoms: _532  and  _534
REMARK  229  A    between atoms: _534  and  _535
REMARK  230  A    between atoms: _534  and  _537
REMARK  231  A    between atoms: _537  and  _538
REMARK  232  A    between atoms: _538  and  _539
REMARK  233  A    between atoms: _539  and  _540
REMARK  234  A    between atoms: _549  and  _551
REMARK  235  A    between atoms: _551  and  _552
REMARK  236  A    between atoms: _551  and  _554
REMARK  237  A    between atoms: _554  and  _555
REMARK  238  A    between atoms: _558  and  _560
REMARK  239  A    between atoms: _560  and  _561
REMARK  240  A    between atoms: _563  and  _565
REMARK  241  A    between atoms: _565  and  _566
REMARK  242  A    between atoms: _565  and  _568
REMARK  243  A    between atoms: _568  and  _569
REMARK  244  A    between atoms: _569  and  _570
REMARK  245  A    between atoms: _573  and  _575
REMARK  246  A    between atoms: _575  and  _576
REMARK  247  A    between atoms: _575  and  _578
REMARK  248  A    between atoms: _578  and  _579
REMARK  249  A    between atoms: _584  and  _586
REMARK  250  A    between atoms: _586  and  _587
REMARK  251  A    between atoms: _589  and  _591
REMARK  252  A    between atoms: _591  and  _592
REMARK  253  A    between atoms: _591  and  _594
REMARK  254  A    between atoms: _594  and  _595
REMARK  255  A    between atoms: _598  and  _600
REMARK  256  A    between atoms: _600  and  _601
REMARK  257  A    between atoms: _603  and  _605
REMARK  258  A    between atoms: _605  and  _606
REMARK  259  A    between atoms: _605  and  _608
REMARK  260  A    between atoms: _608  and  _609
REMARK  261  A    between atoms: _609  and  _610
REMARK  262  A    between atoms: _610  and  _611
REMARK  263  A    between atoms: _611  and  _612
REMARK  264  A    between atoms: _616  and  _618
REMARK  265  A    between atoms: _618  and  _619
REMARK  266  A    between atoms: _618  and  _621
REMARK  267  A    between atoms: _621  and  _622
REMARK  268  A    between atoms: _625  and  _627
REMARK  269  A    between atoms: _627  and  _628
REMARK  270  A    between atoms: _627  and  _630
REMARK  271  A    between atoms: _630  and  _631
REMARK                            x       y       z     vdW  Elec       q    Type
REMARK                         _______ _______ _______ _____ _____    ______ ____
ROOT
ATOM      1  CB  GLN A   1      34.260 -12.401  70.219  0.00  0.00    +0.035 C 
ENDROOT
BRANCH   1   2
ATOM      2  CA  GLN A   1      33.031 -11.994  71.013  0.00  0.00    +0.134 C 
BRANCH   2   3
ATOM      3  N   GLN A   1      32.304 -13.181  71.324  0.00  0.00    -0.239 NA
ATOM      4  H   GLN A   1      32.262 -13.939  70.613  0.00  0.00    +0.142 HD
ENDBRANCH   2   3
BRANCH   2   5
ATOM      5  C   GLN A   1      32.251 -10.981  70.182  0.00  0.00    +0.224 C 
ATOM      6  O   GLN A   1      32.740  -9.861  69.981  0.00  0.00    -0.287 OA
ENDBRANCH   2   5
ENDBRANCH   1   2
BRANCH   1   7
ATOM      7  CG  GLN A   1      35.309 -13.302  70.882  0.00  0.00    +0.087 C 
BRANCH   7   8
ATOM      8  CD  GLN A   1      36.366 -13.765  69.662  0.00  0.00    +0.219 C 
ATOM      9  NE2 GLN A   1      37.456 -12.923  69.646  0.00  0.00    -0.329 N 
ATOM     10 HE21 GLN A   1      37.563 -12.197  70.383  0.00  0.00    +0.145 HD
ATOM     11 HE22 GLN A   1      38.172 -13.014  68.897  0.00  0.00    +0.145 HD
ATOM     12  OE1 GLN A   1      36.207 -14.747  68.679  0.00  0.00    -0.275 OA
ENDBRANCH   7   8
ENDBRANCH   1   7
TORSDOF 5
REMARK  Name = ../refined-set-2016/2xbp/2xbp_pocket.pdb
REMARK  271 active torsions:
REMARK  status: ('A' for Active; 'I' for Inactive)
REMARK    1  A    between atoms: _1  and  _3
REMARK    2  A    between atoms: _3  and  _4
REMARK    3  A    between atoms: _3  and  _6
REMARK    4  A    between atoms: _6  and  _7
REMARK    5  A    between atoms: _7  and  _8
REMARK    6  A    between atoms: _8  and  _9
REMARK    7  A    between atoms: _9  and  _10
REMARK    8  A    between atoms: _14  and  _16
REMARK    9  A    between atoms: _16  and  _17
REMARK   10  A    between atoms: _16  and  _19
REMARK   11  A    between atoms: _19  and  _20
REMARK   12  A    between atoms: _20  and  _21
REMARK   13  A    between atoms: _21  and  _22
REMARK   14  A    between atoms: _22  and  _23
REMARK   15  A    between atoms: _27  and  _29
REMARK   16  A    between atoms: _29  and  _30
REMARK   17  A    between atoms: _29  and  _32
REMARK   18  A    between atoms: _32  and  _33
REMARK   19  A    between atoms: _36  and  _38
REMARK   20  A    between atoms: _38  and  _39
REMARK   21  A    between atoms: _38  and  _41
REMARK   22  A    between atoms: _41  and  _42
REMARK   23  A    between atoms: _45  and  _47
REMARK   24  A    between atoms: _47  and  _48
REMARK   25  A    between atoms: _47  and  _50
REMARK   26  A    between atoms: _53  and  _55
REMARK   27  A    between atoms: _55  and  _56
REMARK   28  A    between atoms: _58  and  _60
REMARK   29  A    between atoms: _60  and  _61
REMARK   30  A    between atoms: _60  and  _63
REMARK   31  A    between atoms: _64  and  _65
REMARK   32  A    between atoms: _67  and  _69
REMARK   33  A    between atoms: _69  and  _70
REMARK   34  A    between atoms: _69  and  _72
REMARK   35  A    between atoms: _72  and  _73
REMARK   36  A    between atoms: _76  and  _78
REMARK   37  A    between atoms: _78  and  _79
REMARK   38  A    between atoms: _78  and  _81
REMARK   39  A    between atoms: _84  and  _86
REMARK   40  A    between atoms: _86  and  _87
REMARK   41  A    between atoms: _86  and  _89
REMARK   42  A    between atoms: _89  and  _90
REMARK   43  A    between atoms: _93  and  _95
REMARK   44  A    between atoms: _95  and  _96
REMARK   45  A    between atoms: _95  and  _98
REMARK   46  A    between atoms: _98  and  _99
REMARK   47  A    between atoms: _99  and  _100
REMARK   48  A    between atoms: _103  and  _105
REMARK   49  A    between atoms: _105  and  _106
REMARK   50  A    between atoms: _105  and  _108
REMARK   51  A    between atoms: _108  and  _109
REMARK   52  A    between atoms: _112  and  _114
REMARK   53  A    between atoms: _114  and  _115
REMARK   54  A    between atoms: _114  and  _117
REMARK   55  A    between atoms: _120  and  _122
REMARK   56  A    between atoms: _122  and  _123
REMARK   57  A    between atoms: _122  and  _125
REMARK   58  A    between atoms: _128  and  _130
REMARK   59  A    between atoms: _130  and  _131
REMARK   60  A    between atoms: _130  and  _133
REMARK   61  A    between atoms: _134  and  _135
REMARK   62  A    between atoms: _138  and  _140
REMARK   63  A    between atoms: _140  and  _141
REMARK   64  A    between atoms: _140  and  _143
REMARK   65  A    between atoms: _143  and  _144
REMARK   66  A    between atoms: _144  and  _145
REMARK   67  A    between atoms: _150  and  _152
REMARK   68  A    between atoms: _152  and  _153
REMARK   69  A    between atoms: _152  and  _155
REMARK   70  A    between atoms: _155  and  _156
REMARK   71  A    between atoms: _159  and  _161
REMARK   72  A    between atoms: _161  and  _162
REMARK   73  A    between atoms: _161  and  _164
REMARK   74  A    between atoms: _164  and  _165
REMARK   75  A    between atoms: _168  and  _170
REMARK   76  A    between atoms: _170  and  _171
REMARK   77  A    between atoms: _170  and  _173
REMARK   78  A    between atoms: _173  and  _174
REMARK   79  A    between atoms: _174  and  _175
REMARK   80  A    between atoms: _175  and  _176
REMARK   81  A    between atoms: _185  and  _187
REMARK   82  A    between atoms: _187  and  _188
REMARK   83  A    between atoms: _187  and  _190
REMARK   84  A    between atoms: _190  and  _191
REMARK   85  A    between atoms: _194  and  _196
REMARK   86  A    between atoms: _196  and  _197
REMARK   87  A    between atoms: _196  and  _199
REMARK   88  A    between atoms: _199  and  _200
REMARK   89  A    between atoms: _200  and  _201
REMARK   90  A    between atoms: _201  and  _202
REMARK   91  A    between atoms: _211  and  _213
REMARK   92  A    between atoms: _213  and  _214
REMARK   93  A    between atoms: _213  and  _216
REMARK   94  A    between atoms: _216  and  _217
REMARK   95  A    between atoms: _220  and  _222
REMARK   96  A    between atoms: _222  and  _223
REMARK   97  A    between atoms: _225  and  _227
REMARK   98  A    between atoms: _227  and  _228
REMARK   99  A    between atoms: _227  and  _230
REMARK  100  A    between atoms: _230  and  _231
REMARK  101  A    between atoms: _231  and  _232
REMARK  102  A    between atoms: _235  and  _237
REMARK  103  A    between atoms: _237  and  _238
REMARK  104  A    between atoms: _237  and  _240
REMARK  105  A    between atoms: _240  and  _241
REMARK  106  A    between atoms: _244  and  _246
REMARK  107  A    between atoms: _246  and  _247
REMARK  108  A    between atoms: _250  and  _252
REMARK  109  A    between atoms: _252  and  _253
REMARK  110  A    between atoms: _252  and  _255
REMARK  111  A    between atoms: _255  and  _256
REMARK  112  A    between atoms: _261  and  _262
REMARK  113  A    between atoms: _261  and  _264
REMARK  114  A    between atoms: _264  and  _265
REMARK  115  A    between atoms: _267  and  _269
REMARK  116  A    between atoms: _269  and  _270
REMARK  117  A    between atoms: _273  and  _275
REMARK  118  A    between atoms: _275  and  _276
REMARK  119  A    between atoms: _275  and  _278
REMARK  120  A    between atoms: _278  and  _279
REMARK  121  A    between atoms: _282  and  _284
REMARK  122  A    between atoms: _284  and  _285
REMARK  123  A    between atoms: _284  and  _287
REMARK  124  A    between atoms: _287  and  _288
REMARK  125  A    between atoms: _291  and  _293
REMARK  126  A    between atoms: _293  and  _294
REMARK  127  A    between atoms: _293  and  _296
REMARK  128  A    between atoms: _296  and  _297
REMARK  129  A    between atoms: _297  and  _298
REMARK  130  A    between atoms: _298  and  _299
REMARK  131  A    between atoms: _308  and  _310
REMARK  132  A    between atoms: _310  and  _311
REMARK  133  A    between atoms: _310  and  _313
REMARK  134  A    between atoms: _316  and  _318
REMARK  135  A    between atoms: _318  and  _319
REMARK  136  A    between atoms: _318  and  _321
REMARK  137  A    between atoms: _321  and  _322
REMARK  138  A    between atoms: _322  and  _323
REMARK  139  A    between atoms: _323  and  _324
REMARK  140  A    between atoms: _333  and  _335
REMARK  141  A    between atoms: _335  and  _336
REMARK  142  A    between atoms: _338  and  _340
REMARK  143  A    between atoms: _340  and  _341
REMARK  144  A    between atoms: _340  and  _343
REMARK  145  A    between atoms: _343  and  _344
REMARK  146  A    between atoms: _350  and  _352
REMARK  147  A    between atoms: _352  and  _353
REMARK  148  A    between atoms: _353  and  _354
REMARK  149  A    between atoms: _353  and  _355
REMARK  150  A    between atoms: _354  and  MG_637
REMARK  151  A    between atoms: _355  and  _357
REMARK  152  A    between atoms: _357  and  _358
REMARK  153  A    between atoms: _357  and  _360
REMARK  154  A    between atoms: _360  and  _361
REMARK  155  A    between atoms: _361  and  _362
REMARK  156  A    between atoms: _362  and  _363
REMARK  157  A    between atoms: _372  and  _374
REMARK  158  A    between atoms: _374  and  _375
REMARK  159  A    between atoms: _374  and  _377
REMARK  160  A    between atoms: _377  and  _378
REMARK  161  A    between atoms: _378  and  _379
REMARK  162  A    between atoms: _384  and  _386
REMARK  163  A    between atoms: _386  and  _387
REMARK  164  A    between atoms: _386  and  _389
REMARK  165  A    between atoms: _389  and  _390
REMARK  166  A    between atoms: _390  and  _391
REMARK  167  A    between atoms: _391  and  _392
REMARK  168  A    between atoms: _392  and  _393
REMARK  169  A    between atoms: _397  and  _399
REMARK  170  A    between atoms: _399  and  _400
REMARK  171  A    between atoms: _399  and  _402
REMARK  172  A    between atoms: _402  and  _403
REMARK  173  A    between atoms: _403  and  _404
REMARK  174  A    between atoms: _409  and  _411
REMARK  175  A    between atoms: _411  and  _412
REMARK  176  A    between atoms: _411  and  _414
REMARK  177  A    between atoms: _414  and  _415
REMARK  178  A    between atoms: _418  and  _420
REMARK  179  A    between atoms: _420  and  _421
REMARK  180  A    between atoms: _420  and  _423
REMARK  181  A    between atoms: _423  and  _424
REMARK  182  A    between atoms: _424  and  _425
REMARK  183  A    between atoms: _428  and  _430
REMARK  184  A    between atoms: _430  and  _431
REMARK  185  A    between atoms: _430  and  _433
REMARK  186  A    between atoms: _434  and  _435
REMARK  187  A    between atoms: _435  and  _436
REMARK  188  A    between atoms: _445  and  _447
REMARK  189  A    between atoms: _447  and  _448
REMARK  190  A    between atoms: _447  and  _450
REMARK  191  A    between atoms: _450  and  _451
REMARK  192  A    between atoms: _454  and  _456
REMARK  193  A    between atoms: _456  and  _457
REMARK  194  A    between atoms: _456  and  _459
REMARK  195  A    between atoms: _459  and  _460
REMARK  196  A    between atoms: _460  and  _461
REMARK  197  A    between atoms: _464  and  _466
REMARK  198  A    between atoms: _466  and  _467
REMARK  199  A    between atoms: _466  and  _469
REMARK  200  A    between atoms: _469  and  _470
REMARK  201  A    between atoms: _476  and  _478
REMARK  202  A    between atoms: _478  and  _479
REMARK  203  A    between atoms: _478  and  _481
REMARK  204  A    between atoms: _481  and  _482
REMARK  205  A    between atoms: _485  and  _487
REMARK  206  A    between atoms: _487  and  _488
REMARK  207  A    between atoms: _487  and  _490
REMARK  208  A    between atoms: _490  and  _491
REMARK  209  A    between atoms: _491  and  _492
REMARK  210  A    between atoms: _497  and  _499
REMARK  211  A    between atoms: _499  and  _500
REMARK  212  A    between atoms: _499  and  _502
REMARK  213  A    between atoms: _502  and  _503
REMARK  214  A    between atoms: _503  and  _504
REMARK  215  A    between atoms: _504  and  _505
REMARK  216  A    between atoms: _505  and  _506
REMARK  217  A    between atoms: _510  and  _512
REMARK  218  A    between atoms: _512  and  _513
REMARK  219  A    between atoms: _512  and  _515
REMARK  220  A    between atoms: _515  and  _516
REMARK  221  A    between atoms: _519  and  _521
REMARK  222  A    between atoms: _521  and  _522
REMARK  223  A    between atoms: _521  and  _524
REMARK  224  A    between atoms: _524  and  _525
REMARK  225  A    between atoms: _525  and  _526
REMARK  226  A    between atoms: _526  and  _527
REMARK  227  A    between atoms: _527  and  _528
REMARK  228  A    between atoms: _532  and  _534
REMARK  229  A    between atoms: _534  and  _535
REMARK  230  A    between atoms: _534  and  _537
REMARK  231  A    between atoms: _537  and  _538
REMARK  232  A    between atoms: _538  and  _539
REMARK  233  A    between atoms: _539  and  _540
REMARK  234  A    between atoms: _549  and  _551
REMARK  235  A    between atoms: _551  and  _552
REMARK  236  A    between atoms: _551  and  _554
REMARK  237  A    between atoms: _554  and  _555
REMARK  238  A    between atoms: _558  and  _560
REMARK  239  A    between atoms: _560  and  _561
REMARK  240  A    between atoms: _563  and  _565
REMARK  241  A    between atoms: _565  and  _566
REMARK  242  A    between atoms: _565  and  _568
REMARK  243  A    between atoms: _568  and  _569
REMARK  244  A    between atoms: _569  and  _570
REMARK  245  A    between atoms: _573  and  _575
REMARK  246  A    between atoms: _575  and  _576
REMARK  247  A    between atoms: _575  and  _578
REMARK  248  A    between atoms: _578  and  _579
REMARK  249  A    between atoms: _584  and  _586
REMARK  250  A    between atoms: _586  and  _587
REMARK  251  A    between atoms: _589  and  _591
REMARK  252  A    between atoms: _591  and  _592
REMARK  253  A    between atoms: _591  and  _594
REMARK  254  A    between atoms: _594  and  _595
REMARK  255  A    between atoms: _598  and  _600
REMARK  256  A    between atoms: _600  and  _601
REMARK  257  A    between atoms: _603  and  _605
REMARK  258  A    between atoms: _605  and  _606
REMARK  259  A    between atoms: _605  and  _608
REMARK  260  A    between atoms: _608  and  _609
REMARK  261  A    between atoms: _609  and  _610
REMARK  262  A    between atoms: _610  and  _611
REMARK  263  A    between atoms: _611  and  _612
REMARK  264  A    between atoms: _616  and  _618
REMARK  265  A    between atoms: _618  and  _619
REMARK  266  A    between atoms: _618  and  _621
REMARK  267  A    between atoms: _621  and  _622
REMARK  268  A    between atoms: _625  and  _627
REMARK  269  A    between atoms: _627  and  _628
REMARK  270  A    between atoms: _627  and  _630
REMARK  271  A    between atoms: _630  and  _631
REMARK                            x       y       z     vdW  Elec       q    Type
REMARK                         _______ _______ _______ _____ _____    ______ ____
ROOT
ATOM      1  C   ILE A   4      44.619 -24.118  54.622  0.00  0.00    +0.241 C 
ATOM      2  N   ARG A   5      45.574 -23.484  55.273  0.00  0.00    -0.297 N 
ATOM      3  H   ARG A   5      45.378 -22.563  55.714  0.00  0.00    +0.150 HD
ATOM      4  O   ILE A   4      44.790 -25.257  54.167  0.00  0.00    -0.273 OA
ENDROOT
BRANCH   1   5
ATOM      5  CA  ILE A   4      43.288 -23.410  54.396  0.00  0.00    +0.149 C 
BRANCH   5   8
ATOM      6  C   ARG A   3      42.541 -23.330  56.692  0.00  0.00    +0.241 C 
ATOM      7  O   ARG A   3      42.726 -24.535  56.823  0.00  0.00    -0.273 OA
ATOM      8  N   ILE A   4      42.836 -22.688  55.575  0.00  0.00    -0.297 N 
ATOM      9  H   ILE A   4      42.744 -21.653  55.539  0.00  0.00    +0.150 HD
BRANCH   6  10
ATOM     10  CA  ARG A   3      41.872 -22.577  57.849  0.00  0.00    +0.149 C 
BRANCH  10  12
ATOM     11  C   ILE A   2      39.466 -22.954  57.458  0.00  0.00    +0.241 C 
ATOM     12  N   ARG A   3      40.590 -23.189  58.140  0.00  0.00    -0.297 N 
ATOM     13  H   ARG A   3      40.542 -23.858  58.935  0.00  0.00    +0.150 HD
ATOM     14  O   ILE A   2      39.436 -22.068  56.587  0.00  0.00    -0.273 OA
BRANCH  11  15
ATOM     15  CA  ILE A   2      38.259 -23.810  57.746  0.00  0.00    +0.148 C 
BRANCH  15  18
ATOM     16  C   THR A   1      36.336 -23.114  59.091  0.00  0.00    +0.241 C 
ATOM     17  O   THR A   1      36.483 -24.040  59.895  0.00  0.00    -0.274 OA
ATOM     18  N   ILE A   2      37.117 -22.925  58.026  0.00  0.00    -0.297 N 
ATOM     19  H   ILE A   2      36.914 -22.136  57.380  0.00  0.00    +0.150 HD
BRANCH  16  20
ATOM     20  CA  THR A   1      35.198 -22.133  59.311  0.00  0.00    +0.172 C 
BRANCH  20  21
ATOM     21  N   THR A   1      34.008 -22.874  59.685  0.00  0.00    -0.236 NA
ATOM     22  H   THR A   1      34.074 -23.513  60.503  0.00  0.00    +0.142 HD
ENDBRANCH  20  21
BRANCH  20  23
ATOM     23  CB  THR A   1      35.583 -21.064  60.332  0.00  0.00    +0.135 C 
ATOM     24  CG2 THR A   1      36.767 -20.235  59.909  0.00  0.00    +0.034 C 
BRANCH  23  25
ATOM     25  OG1 THR A   1      34.472 -20.164  60.541  0.00  0.00    -0.383 OA
ATOM     26  HG1 THR A   1      34.728 -19.474  61.203  0.00  0.00    +0.210 HD
ENDBRANCH  23  25
ENDBRANCH  20  23
ENDBRANCH  16  20
ENDBRANCH  15  18
BRANCH  15  27
ATOM     27  CB  ILE A   2      38.000 -24.760  56.542  0.00  0.00    +0.027 C 
ATOM     28  CG2 ILE A   2      39.183 -25.715  56.359  0.00  0.00    +0.002 C 
BRANCH  27  29
ATOM     29  CG1 ILE A   2      36.678 -25.493  56.708  0.00  0.00    +0.002 C 
ATOM     30  CD1 ILE A   2      35.430 -24.812  56.066  0.00  0.00    +0.000 C 
ENDBRANCH  27  29
ENDBRANCH  15  27
ENDBRANCH  11  15
ENDBRANCH  10  12
BRANCH  10  31
ATOM     31  CB  ARG A   3      42.769 -22.570  59.085  0.00  0.00    +0.033 C 
BRANCH  31  32
ATOM     32  CG  ARG A   3      44.101 -21.926  58.861  0.00  0.00    +0.045 C 
BRANCH  32  33
ATOM     33  CD  ARG A   3      44.957 -21.772  60.142  0.00  0.00    +0.174 C 
BRANCH  33  34
ATOM     34  NE  ARG A   3      44.425 -20.765  61.024  0.00  0.00    -0.265 N 
ATOM     35  CZ  ARG A   3      44.112 -20.887  62.305  0.00  0.00    +0.342 C 
ATOM     36  NH2 ARG A   3      43.679 -19.824  62.950  0.00  0.00    -0.292 N 
ATOM     37 HH21 ARG A   3      43.427 -19.893  63.957  0.00  0.00    +0.255 HD
ATOM     38 HH22 ARG A   3      43.589 -18.915  62.453  0.00  0.00    +0.255 HD
ATOM     39  NH1 ARG A   3      44.273 -22.019  62.946  0.00  0.00    -0.292 N 
ATOM     40 HH11 ARG A   3      44.019 -22.088  63.952  0.00  0.00    +0.255 HD
ATOM     41 HH12 ARG A   3      44.655 -22.849  62.448  0.00  0.00    +0.255 HD
ATOM     42  HE  ARG A   3      44.267 -19.827  60.603  0.00  0.00    +0.259 HD
ENDBRANCH  33  34
ENDBRANCH  32  33
ENDBRANCH  31  32
ENDBRANCH  10  31
ENDBRANCH   6  10
ENDBRANCH   5   8
BRANCH   5  43
ATOM     43  CB  ILE A   4      43.317 -22.459  53.173  0.00  0.00    +0.027 C 
ATOM     44  CG2 ILE A   4      44.131 -23.050  52.012  0.00  0.00    +0.002 C 
BRANCH  43  45
ATOM     45  CG1 ILE A   4      41.862 -22.152  52.747  0.00  0.00    +0.002 C 
ATOM     46  CD1 ILE A   4      41.721 -21.243  51.501  0.00  0.00    +0.000 C 
ENDBRANCH  43  45
ENDBRANCH   5  43
ENDBRANCH   1   5
BRANCH   2  47
ATOM     47  CA  ARG A   5      46.899 -24.069  55.375  0.00  0.00    +0.149 C 
BRANCH  47  48
ATOM     48  C   ARG A   5      46.940 -25.403  56.092  0.00  0.00    +0.241 C 
ATOM     49  N   THR A   6      46.100 -25.553  57.113  0.00  0.00    -0.295 N 
ATOM     50  H   THR A   6      45.360 -24.834  57.246  0.00  0.00    +0.150 HD
ATOM     51  O   ARG A   5      47.739 -26.276  55.771  0.00  0.00    -0.273 OA
BRANCH  49  52
ATOM     52  CA  THR A   6      46.152 -26.660  58.055  0.00  0.00    +0.176 C 
BRANCH  52  53
ATOM     53  C   THR A   6      44.912 -27.542  58.022  0.00  0.00    +0.243 C 
ATOM     54  O   THR A   6      44.943 -28.624  58.613  0.00  0.00    -0.273 OA
ATOM     55  N   GLY A   7      43.816 -27.100  57.465  0.00  0.00    -0.295 N 
ATOM     56  H   GLY A   7      43.848 -26.216  56.918  0.00  0.00    +0.150 HD
BRANCH  55  57
ATOM     57  CA  GLY A   7      42.575 -27.798  57.586  0.00  0.00    +0.176 C 
BRANCH  57  58
ATOM     58  C   GLY A   7      41.944 -27.693  58.962  0.00  0.00    +0.243 C 
ATOM     59  N   GLU A   8      42.424 -26.864  59.881  0.00  0.00    -0.298 N 
ATOM     60  H   GLU A   8      43.288 -26.324  59.671  0.00  0.00    +0.150 HD
ATOM     61  O   GLY A   7      40.931 -28.372  59.206  0.00  0.00    -0.273 OA
BRANCH  59  62
ATOM     62  CA  GLU A   8      41.778 -26.687  61.176  0.00  0.00    +0.137 C 
BRANCH  62  63
ATOM     63  C   GLU A   8      40.359 -26.124  60.976  0.00  0.00    +0.227 C 
ATOM     64  O   GLU A   8      40.136 -25.354  60.041  0.00  0.00    -0.286 OA
ENDBRANCH  62  63
BRANCH  62  65
ATOM     65  CB  GLU A   8      42.618 -25.786  62.030  0.00  0.00    +0.039 C 
BRANCH  65  66
ATOM     66  CG  GLU A   8      43.871 -26.439  62.581  0.00  0.00    +0.116 C 
BRANCH  66  67
ATOM     67  CD  GLU A   8      44.786 -25.402  63.119  0.00  0.00    +0.365 C 
ATOM     68  OE2 GLU A   8      44.816 -25.251  64.399  0.00  0.00    -0.246 OA
ATOM     69  OE1 GLU A   8      45.412 -24.609  62.376  0.00  0.00    -0.246 OA
ENDBRANCH  66  67
ENDBRANCH  65  66
ENDBRANCH  62  65
ENDBRANCH  59  62
ENDBRANCH  57  58
ENDBRANCH  55  57
ENDBRANCH  52  53
BRANCH  52  70
ATOM     70  CB  THR A   6      46.381 -26.132  59.473  0.00  0.00    +0.137 C 
ATOM     71  CG2 THR A   6      47.652 -25.335  59.632  0.00  0.00    +0.034 C 
BRANCH  70  72
ATOM     72  OG1 THR A   6      45.190 -25.344  59.768  0.00  0.00    -0.382 OA
ATOM     73  HG1 THR A   6      45.264 -24.965  60.679  0.00  0.00    +0.210 HD
ENDBRANCH  70  72
ENDBRANCH  52  70
ENDBRANCH  49  52
ENDBRANCH  47  48
BRANCH  47  74
ATOM     74  CB  ARG A   5      47.808 -23.040  56.086  0.00  0.00    +0.033 C 
BRANCH  74  75
ATOM     75  CG  ARG A   5      49.262 -23.488  56.238  0.00  0.00    +0.045 C 
BRANCH  75  76
ATOM     76  CD  ARG A   5      50.098 -22.340  56.760  0.00  0.00    +0.174 C 
BRANCH  76  77
ATOM     77  NE  ARG A   5      49.627 -21.873  58.042  0.00  0.00    -0.265 N 
ATOM     78  CZ  ARG A   5      49.862 -22.425  59.209  0.00  0.00    +0.342 C 
ATOM     79  NH2 ARG A   5      49.310 -21.947  60.310  0.00  0.00    -0.292 N 
ATOM     80 HH21 ARG A   5      49.506 -22.396  61.227  0.00  0.00    +0.255 HD
ATOM     81 HH22 ARG A   5      48.679 -21.122  60.259  0.00  0.00    +0.255 HD
ATOM     82  NH1 ARG A   5      50.651 -23.500  59.304  0.00  0.00    -0.292 N 
ATOM     83 HH11 ARG A   5      50.832 -23.932  60.233  0.00  0.00    +0.255 HD
ATOM     84 HH12 ARG A   5      51.084 -23.905  58.449  0.00  0.00    +0.255 HD
ATOM     85  HE  ARG A   5      49.043 -21.013  58.041  0.00  0.00    +0.259 HD
ENDBRANCH  76  77
ENDBRANCH  75  76
ENDBRANCH  74  75
ENDBRANCH  47  74
ENDBRANCH   2  47
TORSDOF 35
REMARK  Name = ../refined-set-2016/2xbp/2xbp_pocket.pdb
REMARK  271 active torsions:
REMARK  status: ('A' for Active; 'I' for Inactive)
REMARK    1  A    between atoms: _1  and  _3
REMARK    2  A    between atoms: _3  and  _4
REMARK    3  A    between atoms: _3  and  _6
REMARK    4  A    between atoms: _6  and  _7
REMARK    5  A    between atoms: _7  and  _8
REMARK    6  A    between atoms: _8  and  _9
REMARK    7  A    between atoms: _9  and  _10
REMARK    8  A    between atoms: _14  and  _16
REMARK    9  A    between atoms: _16  and  _17
REMARK   10  A    between atoms: _16  and  _19
REMARK   11  A    between atoms: _19  and  _20
REMARK   12  A    between atoms: _20  and  _21
REMARK   13  A    between atoms: _21  and  _22
REMARK   14  A    between atoms: _22  and  _23
REMARK   15  A    between atoms: _27  and  _29
REMARK   16  A    between atoms: _29  and  _30
REMARK   17  A    between atoms: _29  and  _32
REMARK   18  A    between atoms: _32  and  _33
REMARK   19  A    between atoms: _36  and  _38
REMARK   20  A    between atoms: _38  and  _39
REMARK   21  A    between atoms: _38  and  _41
REMARK   22  A    between atoms: _41  and  _42
REMARK   23  A    between atoms: _45  and  _47
REMARK   24  A    between atoms: _47  and  _48
REMARK   25  A    between atoms: _47  and  _50
REMARK   26  A    between atoms: _53  and  _55
REMARK   27  A    between atoms: _55  and  _56
REMARK   28  A    between atoms: _58  and  _60
REMARK   29  A    between atoms: _60  and  _61
REMARK   30  A    between atoms: _60  and  _63
REMARK   31  A    between atoms: _64  and  _65
REMARK   32  A    between atoms: _67  and  _69
REMARK   33  A    between atoms: _69  and  _70
REMARK   34  A    between atoms: _69  and  _72
REMARK   35  A    between atoms: _72  and  _73
REMARK   36  A    between atoms: _76  and  _78
REMARK   37  A    between atoms: _78  and  _79
REMARK   38  A    between atoms: _78  and  _81
REMARK   39  A    between atoms: _84  and  _86
REMARK   40  A    between atoms: _86  and  _87
REMARK   41  A    between atoms: _86  and  _89
REMARK   42  A    between atoms: _89  and  _90
REMARK   43  A    between atoms: _93  and  _95
REMARK   44  A    between atoms: _95  and  _96
REMARK   45  A    between atoms: _95  and  _98
REMARK   46  A    between atoms: _98  and  _99
REMARK   47  A    between atoms: _99  and  _100
REMARK   48  A    between atoms: _103  and  _105
REMARK   49  A    between atoms: _105  and  _106
REMARK   50  A    between atoms: _105  and  _108
REMARK   51  A    between atoms: _108  and  _109
REMARK   52  A    between atoms: _112  and  _114
REMARK   53  A    between atoms: _114  and  _115
REMARK   54  A    between atoms: _114  and  _117
REMARK   55  A    between atoms: _120  and  _122
REMARK   56  A    between atoms: _122  and  _123
REMARK   57  A    between atoms: _122  and  _125
REMARK   58  A    between atoms: _128  and  _130
REMARK   59  A    between atoms: _130  and  _131
REMARK   60  A    between atoms: _130  and  _133
REMARK   61  A    between atoms: _134  and  _135
REMARK   62  A    between atoms: _138  and  _140
REMARK   63  A    between atoms: _140  and  _141
REMARK   64  A    between atoms: _140  and  _143
REMARK   65  A    between atoms: _143  and  _144
REMARK   66  A    between atoms: _144  and  _145
REMARK   67  A    between atoms: _150  and  _152
REMARK   68  A    between atoms: _152  and  _153
REMARK   69  A    between atoms: _152  and  _155
REMARK   70  A    between atoms: _155  and  _156
REMARK   71  A    between atoms: _159  and  _161
REMARK   72  A    between atoms: _161  and  _162
REMARK   73  A    between atoms: _161  and  _164
REMARK   74  A    between atoms: _164  and  _165
REMARK   75  A    between atoms: _168  and  _170
REMARK   76  A    between atoms: _170  and  _171
REMARK   77  A    between atoms: _170  and  _173
REMARK   78  A    between atoms: _173  and  _174
REMARK   79  A    between atoms: _174  and  _175
REMARK   80  A    between atoms: _175  and  _176
REMARK   81  A    between atoms: _185  and  _187
REMARK   82  A    between atoms: _187  and  _188
REMARK   83  A    between atoms: _187  and  _190
REMARK   84  A    between atoms: _190  and  _191
REMARK   85  A    between atoms: _194  and  _196
REMARK   86  A    between atoms: _196  and  _197
REMARK   87  A    between atoms: _196  and  _199
REMARK   88  A    between atoms: _199  and  _200
REMARK   89  A    between atoms: _200  and  _201
REMARK   90  A    between atoms: _201  and  _202
REMARK   91  A    between atoms: _211  and  _213
REMARK   92  A    between atoms: _213  and  _214
REMARK   93  A    between atoms: _213  and  _216
REMARK   94  A    between atoms: _216  and  _217
REMARK   95  A    between atoms: _220  and  _222
REMARK   96  A    between atoms: _222  and  _223
REMARK   97  A    between atoms: _225  and  _227
REMARK   98  A    between atoms: _227  and  _228
REMARK   99  A    between atoms: _227  and  _230
REMARK  100  A    between atoms: _230  and  _231
REMARK  101  A    between atoms: _231  and  _232
REMARK  102  A    between atoms: _235  and  _237
REMARK  103  A    between atoms: _237  and  _238
REMARK  104  A    between atoms: _237  and  _240
REMARK  105  A    between atoms: _240  and  _241
REMARK  106  A    between atoms: _244  and  _246
REMARK  107  A    between atoms: _246  and  _247
REMARK  108  A    between atoms: _250  and  _252
REMARK  109  A    between atoms: _252  and  _253
REMARK  110  A    between atoms: _252  and  _255
REMARK  111  A    between atoms: _255  and  _256
REMARK  112  A    between atoms: _261  and  _262
REMARK  113  A    between atoms: _261  and  _264
REMARK  114  A    between atoms: _264  and  _265
REMARK  115  A    between atoms: _267  and  _269
REMARK  116  A    between atoms: _269  and  _270
REMARK  117  A    between atoms: _273  and  _275
REMARK  118  A    between atoms: _275  and  _276
REMARK  119  A    between atoms: _275  and  _278
REMARK  120  A    between atoms: _278  and  _279
REMARK  121  A    between atoms: _282  and  _284
REMARK  122  A    between atoms: _284  and  _285
REMARK  123  A    between atoms: _284  and  _287
REMARK  124  A    between atoms: _287  and  _288
REMARK  125  A    between atoms: _291  and  _293
REMARK  126  A    between atoms: _293  and  _294
REMARK  127  A    between atoms: _293  and  _296
REMARK  128  A    between atoms: _296  and  _297
REMARK  129  A    between atoms: _297  and  _298
REMARK  130  A    between atoms: _298  and  _299
REMARK  131  A    between atoms: _308  and  _310
REMARK  132  A    between atoms: _310  and  _311
REMARK  133  A    between atoms: _310  and  _313
REMARK  134  A    between atoms: _316  and  _318
REMARK  135  A    between atoms: _318  and  _319
REMARK  136  A    between atoms: _318  and  _321
REMARK  137  A    between atoms: _321  and  _322
REMARK  138  A    between atoms: _322  and  _323
REMARK  139  A    between atoms: _323  and  _324
REMARK  140  A    between atoms: _333  and  _335
REMARK  141  A    between atoms: _335  and  _336
REMARK  142  A    between atoms: _338  and  _340
REMARK  143  A    between atoms: _340  and  _341
REMARK  144  A    between atoms: _340  and  _343
REMARK  145  A    between atoms: _343  and  _344
REMARK  146  A    between atoms: _350  and  _352
REMARK  147  A    between atoms: _352  and  _353
REMARK  148  A    between atoms: _353  and  _354
REMARK  149  A    between atoms: _353  and  _355
REMARK  150  A    between atoms: _354  and  MG_637
REMARK  151  A    between atoms: _355  and  _357
REMARK  152  A    between atoms: _357  and  _358
REMARK  153  A    between atoms: _357  and  _360
REMARK  154  A    between atoms: _360  and  _361
REMARK  155  A    between atoms: _361  and  _362
REMARK  156  A    between atoms: _362  and  _363
REMARK  157  A    between atoms: _372  and  _374
REMARK  158  A    between atoms: _374  and  _375
REMARK  159  A    between atoms: _374  and  _377
REMARK  160  A    between atoms: _377  and  _378
REMARK  161  A    between atoms: _378  and  _379
REMARK  162  A    between atoms: _384  and  _386
REMARK  163  A    between atoms: _386  and  _387
REMARK  164  A    between atoms: _386  and  _389
REMARK  165  A    between atoms: _389  and  _390
REMARK  166  A    between atoms: _390  and  _391
REMARK  167  A    between atoms: _391  and  _392
REMARK  168  A    between atoms: _392  and  _393
REMARK  169  A    between atoms: _397  and  _399
REMARK  170  A    between atoms: _399  and  _400
REMARK  171  A    between atoms: _399  and  _402
REMARK  172  A    between atoms: _402  and  _403
REMARK  173  A    between atoms: _403  and  _404
REMARK  174  A    between atoms: _409  and  _411
REMARK  175  A    between atoms: _411  and  _412
REMARK  176  A    between atoms: _411  and  _414
REMARK  177  A    between atoms: _414  and  _415
REMARK  178  A    between atoms: _418  and  _420
REMARK  179  A    between atoms: _420  and  _421
REMARK  180  A    between atoms: _420  and  _423
REMARK  181  A    between atoms: _423  and  _424
REMARK  182  A    between atoms: _424  and  _425
REMARK  183  A    between atoms: _428  and  _430
REMARK  184  A    between atoms: _430  and  _431
REMARK  185  A    between atoms: _430  and  _433
REMARK  186  A    between atoms: _434  and  _435
REMARK  187  A    between atoms: _435  and  _436
REMARK  188  A    between atoms: _445  and  _447
REMARK  189  A    between atoms: _447  and  _448
REMARK  190  A    between atoms: _447  and  _450
REMARK  191  A    between atoms: _450  and  _451
REMARK  192  A    between atoms: _454  and  _456
REMARK  193  A    between atoms: _456  and  _457
REMARK  194  A    between atoms: _456  and  _459
REMARK  195  A    between atoms: _459  and  _460
REMARK  196  A    between atoms: _460  and  _461
REMARK  197  A    between atoms: _464  and  _466
REMARK  198  A    between atoms: _466  and  _467
REMARK  199  A    between atoms: _466  and  _469
REMARK  200  A    between atoms: _469  and  _470
REMARK  201  A    between atoms: _476  and  _478
REMARK  202  A    between atoms: _478  and  _479
REMARK  203  A    between atoms: _478  and  _481
REMARK  204  A    between atoms: _481  and  _482
REMARK  205  A    between atoms: _485  and  _487
REMARK  206  A    between atoms: _487  and  _488
REMARK  207  A    between atoms: _487  and  _490
REMARK  208  A    between atoms: _490  and  _491
REMARK  209  A    between atoms: _491  and  _492
REMARK  210  A    between atoms: _497  and  _499
REMARK  211  A    between atoms: _499  and  _500
REMARK  212  A    between atoms: _499  and  _502
REMARK  213  A    between atoms: _502  and  _503
REMARK  214  A    between atoms: _503  and  _504
REMARK  215  A    between atoms: _504  and  _505
REMARK  216  A    between atoms: _505  and  _506
REMARK  217  A    between atoms: _510  and  _512
REMARK  218  A    between atoms: _512  and  _513
REMARK  219  A    between atoms: _512  and  _515
REMARK  220  A    between atoms: _515  and  _516
REMARK  221  A    between atoms: _519  and  _521
REMARK  222  A    between atoms: _521  and  _522
REMARK  223  A    between atoms: _521  and  _524
REMARK  224  A    between atoms: _524  and  _525
REMARK  225  A    between atoms: _525  and  _526
REMARK  226  A    between atoms: _526  and  _527
REMARK  227  A    between atoms: _527  and  _528
REMARK  228  A    between atoms: _532  and  _534
REMARK  229  A    between atoms: _534  and  _535
REMARK  230  A    between atoms: _534  and  _537
REMARK  231  A    between atoms: _537  and  _538
REMARK  232  A    between atoms: _538  and  _539
REMARK  233  A    between atoms: _539  and  _540
REMARK  234  A    between atoms: _549  and  _551
REMARK  235  A    between atoms: _551  and  _552
REMARK  236  A    between atoms: _551  and  _554
REMARK  237  A    between atoms: _554  and  _555
REMARK  238  A    between atoms: _558  and  _560
REMARK  239  A    between atoms: _560  and  _561
REMARK  240  A    between atoms: _563  and  _565
REMARK  241  A    between atoms: _565  and  _566
REMARK  242  A    between atoms: _565  and  _568
REMARK  243  A    between atoms: _568  and  _569
REMARK  244  A    between atoms: _569  and  _570
REMARK  245  A    between atoms: _573  and  _575
REMARK  246  A    between atoms: _575  and  _576
REMARK  247  A    between atoms: _575  and  _578
REMARK  248  A    between atoms: _578  and  _579
REMARK  249  A    between atoms: _584  and  _586
REMARK  250  A    between atoms: _586  and  _587
REMARK  251  A    between atoms: _589  and  _591
REMARK  252  A    between atoms: _591  and  _592
REMARK  253  A    between atoms: _591  and  _594
REMARK  254  A    between atoms: _594  and  _595
REMARK  255  A    between atoms: _598  and  _600
REMARK  256  A    between atoms: _600  and  _601
REMARK  257  A    between atoms: _603  and  _605
REMARK  258  A    between atoms: _605  and  _606
REMARK  259  A    between atoms: _605  and  _608
REMARK  260  A    between atoms: _608  and  _609
REMARK  261  A    between atoms: _609  and  _610
REMARK  262  A    between atoms: _610  and  _611
REMARK  263  A    between atoms: _611  and  _612
REMARK  264  A    between atoms: _616  and  _618
REMARK  265  A    between atoms: _618  and  _619
REMARK  266  A    between atoms: _618  and  _621
REMARK  267  A    between atoms: _621  and  _622
REMARK  268  A    between atoms: _625  and  _627
REMARK  269  A    between atoms: _627  and  _628
REMARK  270  A    between atoms: _627  and  _630
REMARK  271  A    between atoms: _630  and  _631
REMARK                            x       y       z     vdW  Elec       q    Type
REMARK                         _______ _______ _______ _____ _____    ______ ____
ROOT
ATOM      1  C   ALA A   2      40.187 -20.302  62.958  0.00  0.00    +0.241 C 
ATOM      2  N   ILE A   3      39.669 -19.928  64.115  0.00  0.00    -0.297 N 
ATOM      3  H   ILE A   3      39.383 -20.657  64.799  0.00  0.00    +0.150 HD
ATOM      4  O   ALA A   2      40.495 -19.493  62.088  0.00  0.00    -0.273 OA
ENDROOT
BRANCH   1   5
ATOM      5  CA  ALA A   2      40.390 -21.780  62.739  0.00  0.00    +0.149 C 
ATOM      6  CB  ALA A   2      39.533 -22.254  61.583  0.00  0.00    +0.031 C 
BRANCH   5   9
ATOM      7  C   ASP A   1      40.974 -22.871  64.878  0.00  0.00    +0.239 C 
ATOM      8  O   ASP A   1      42.106 -22.407  64.853  0.00  0.00    -0.274 OA
ATOM      9  N   ALA A   2      40.126 -22.609  63.909  0.00  0.00    -0.297 N 
ATOM     10  H   ALA A   2      39.179 -23.032  63.984  0.00  0.00    +0.150 HD
BRANCH   7  11
ATOM     11  CA  ASP A   1      40.573 -23.810  66.012  0.00  0.00    +0.156 C 
BRANCH  11  12
ATOM     12  N   ASP A   1      39.134 -23.705  66.266  0.00  0.00    -0.238 NA
ATOM     13  H   ASP A   1      38.531 -24.535  66.098  0.00  0.00    +0.142 HD
ENDBRANCH  11  12
BRANCH  11  14
ATOM     14  CB  ASP A   1      40.990 -25.279  65.650  0.00  0.00    +0.140 C 
BRANCH  14  15
ATOM     15  CG  ASP A   1      40.928 -26.265  66.763  0.00  0.00    +0.367 C 
ATOM     16  OD2 ASP A   1      40.960 -25.931  67.925  0.00  0.00    -0.246 OA
ATOM     17  OD1 ASP A   1      40.948 -27.505  66.421  0.00  0.00    -0.246 OA
ENDBRANCH  14  15
ENDBRANCH  11  14
ENDBRANCH   7  11
ENDBRANCH   5   9
ENDBRANCH   1   5
BRANCH   2  18
ATOM     18  CA  ILE A   3      39.490 -18.555  64.453  0.00  0.00    +0.149 C 
BRANCH  18  19
ATOM     19  C   ILE A   3      40.209 -18.295  65.728  0.00  0.00    +0.244 C 
ATOM     20  O   ILE A   3      40.117 -17.281  66.298  0.00  0.00    -0.273 OA
ATOM     21  N   SER A   4      41.148 -19.163  66.087  0.00  0.00    -0.281 N 
ATOM     22  CA  SER A   4      41.916 -18.735  67.304  0.00  0.00    +0.100 C 
ATOM     23  H   SER A   4      41.333 -20.050  65.576  0.00  0.00    +0.155 HD
BRANCH  22  24
ATOM     24  CB  SER A   4      43.271 -18.182  67.094  0.00  0.00    +0.247 C 
ATOM     25  OG  SER A   4      43.513 -17.408  66.141  0.00  0.00    -0.282 OA
ENDBRANCH  22  24
BRANCH  22  26
ATOM     26  C   SER A   4      41.642 -19.538  68.523  0.00  0.00    +0.182 C 
BRANCH  26  27
ATOM     27  O   SER A   4      40.266 -19.504  68.845  0.00  0.00    -0.376 OA
ATOM     28  H   SER A   4      40.105 -20.044  69.659  0.00  0.00    +0.211 HD
ENDBRANCH  26  27
ENDBRANCH  22  26
ENDBRANCH  18  19
BRANCH  18  29
ATOM     29  CB  ILE A   3      38.033 -18.113  64.495  0.00  0.00    +0.027 C 
ATOM     30  CG2 ILE A   3      37.399 -18.163  63.105  0.00  0.00    +0.002 C 
BRANCH  29  31
ATOM     31  CG1 ILE A   3      37.178 -18.928  65.421  0.00  0.00    +0.002 C 
ATOM     32  CD1 ILE A   3      35.690 -18.384  65.490  0.00  0.00    +0.000 C 
ENDBRANCH  29  31
ENDBRANCH  18  29
ENDBRANCH   2  18
TORSDOF 13
REMARK  Name = ../refined-set-2016/2xbp/2xbp_pocket.pdb
REMARK  271 active torsions:
REMARK  status: ('A' for Active; 'I' for Inactive)
REMARK    1  A    between atoms: _1  and  _3
REMARK    2  A    between atoms: _3  and  _4
REMARK    3  A    between atoms: _3  and  _6
REMARK    4  A    between atoms: _6  and  _7
REMARK    5  A    between atoms: _7  and  _8
REMARK    6  A    between atoms: _8  and  _9
REMARK    7  A    between atoms: _9  and  _10
REMARK    8  A    between atoms: _14  and  _16
REMARK    9  A    between atoms: _16  and  _17
REMARK   10  A    between atoms: _16  and  _19
REMARK   11  A    between atoms: _19  and  _20
REMARK   12  A    between atoms: _20  and  _21
REMARK   13  A    between atoms: _21  and  _22
REMARK   14  A    between atoms: _22  and  _23
REMARK   15  A    between atoms: _27  and  _29
REMARK   16  A    between atoms: _29  and  _30
REMARK   17  A    between atoms: _29  and  _32
REMARK   18  A    between atoms: _32  and  _33
REMARK   19  A    between atoms: _36  and  _38
REMARK   20  A    between atoms: _38  and  _39
REMARK   21  A    between atoms: _38  and  _41
REMARK   22  A    between atoms: _41  and  _42
REMARK   23  A    between atoms: _45  and  _47
REMARK   24  A    between atoms: _47  and  _48
REMARK   25  A    between atoms: _47  and  _50
REMARK   26  A    between atoms: _53  and  _55
REMARK   27  A    between atoms: _55  and  _56
REMARK   28  A    between atoms: _58  and  _60
REMARK   29  A    between atoms: _60  and  _61
REMARK   30  A    between atoms: _60  and  _63
REMARK   31  A    between atoms: _64  and  _65
REMARK   32  A    between atoms: _67  and  _69
REMARK   33  A    between atoms: _69  and  _70
REMARK   34  A    between atoms: _69  and  _72
REMARK   35  A    between atoms: _72  and  _73
REMARK   36  A    between atoms: _76  and  _78
REMARK   37  A    between atoms: _78  and  _79
REMARK   38  A    between atoms: _78  and  _81
REMARK   39  A    between atoms: _84  and  _86
REMARK   40  A    between atoms: _86  and  _87
REMARK   41  A    between atoms: _86  and  _89
REMARK   42  A    between atoms: _89  and  _90
REMARK   43  A    between atoms: _93  and  _95
REMARK   44  A    between atoms: _95  and  _96
REMARK   45  A    between atoms: _95  and  _98
REMARK   46  A    between atoms: _98  and  _99
REMARK   47  A    between atoms: _99  and  _100
REMARK   48  A    between atoms: _103  and  _105
REMARK   49  A    between atoms: _105  and  _106
REMARK   50  A    between atoms: _105  and  _108
REMARK   51  A    between atoms: _108  and  _109
REMARK   52  A    between atoms: _112  and  _114
REMARK   53  A    between atoms: _114  and  _115
REMARK   54  A    between atoms: _114  and  _117
REMARK   55  A    between atoms: _120  and  _122
REMARK   56  A    between atoms: _122  and  _123
REMARK   57  A    between atoms: _122  and  _125
REMARK   58  A    between atoms: _128  and  _130
REMARK   59  A    between atoms: _130  and  _131
REMARK   60  A    between atoms: _130  and  _133
REMARK   61  A    between atoms: _134  and  _135
REMARK   62  A    between atoms: _138  and  _140
REMARK   63  A    between atoms: _140  and  _141
REMARK   64  A    between atoms: _140  and  _143
REMARK   65  A    between atoms: _143  and  _144
REMARK   66  A    between atoms: _144  and  _145
REMARK   67  A    between atoms: _150  and  _152
REMARK   68  A    between atoms: _152  and  _153
REMARK   69  A    between atoms: _152  and  _155
REMARK   70  A    between atoms: _155  and  _156
REMARK   71  A    between atoms: _159  and  _161
REMARK   72  A    between atoms: _161  and  _162
REMARK   73  A    between atoms: _161  and  _164
REMARK   74  A    between atoms: _164  and  _165
REMARK   75  A    between atoms: _168  and  _170
REMARK   76  A    between atoms: _170  and  _171
REMARK   77  A    between atoms: _170  and  _173
REMARK   78  A    between atoms: _173  and  _174
REMARK   79  A    between atoms: _174  and  _175
REMARK   80  A    between atoms: _175  and  _176
REMARK   81  A    between atoms: _185  and  _187
REMARK   82  A    between atoms: _187  and  _188
REMARK   83  A    between atoms: _187  and  _190
REMARK   84  A    between atoms: _190  and  _191
REMARK   85  A    between atoms: _194  and  _196
REMARK   86  A    between atoms: _196  and  _197
REMARK   87  A    between atoms: _196  and  _199
REMARK   88  A    between atoms: _199  and  _200
REMARK   89  A    between atoms: _200  and  _201
REMARK   90  A    between atoms: _201  and  _202
REMARK   91  A    between atoms: _211  and  _213
REMARK   92  A    between atoms: _213  and  _214
REMARK   93  A    between atoms: _213  and  _216
REMARK   94  A    between atoms: _216  and  _217
REMARK   95  A    between atoms: _220  and  _222
REMARK   96  A    between atoms: _222  and  _223
REMARK   97  A    between atoms: _225  and  _227
REMARK   98  A    between atoms: _227  and  _228
REMARK   99  A    between atoms: _227  and  _230
REMARK  100  A    between atoms: _230  and  _231
REMARK  101  A    between atoms: _231  and  _232
REMARK  102  A    between atoms: _235  and  _237
REMARK  103  A    between atoms: _237  and  _238
REMARK  104  A    between atoms: _237  and  _240
REMARK  105  A    between atoms: _240  and  _241
REMARK  106  A    between atoms: _244  and  _246
REMARK  107  A    between atoms: _246  and  _247
REMARK  108  A    between atoms: _250  and  _252
REMARK  109  A    between atoms: _252  and  _253
REMARK  110  A    between atoms: _252  and  _255
REMARK  111  A    between atoms: _255  and  _256
REMARK  112  A    between atoms: _261  and  _262
REMARK  113  A    between atoms: _261  and  _264
REMARK  114  A    between atoms: _264  and  _265
REMARK  115  A    between atoms: _267  and  _269
REMARK  116  A    between atoms: _269  and  _270
REMARK  117  A    between atoms: _273  and  _275
REMARK  118  A    between atoms: _275  and  _276
REMARK  119  A    between atoms: _275  and  _278
REMARK  120  A    between atoms: _278  and  _279
REMARK  121  A    between atoms: _282  and  _284
REMARK  122  A    between atoms: _284  and  _285
REMARK  123  A    between atoms: _284  and  _287
REMARK  124  A    between atoms: _287  and  _288
REMARK  125  A    between atoms: _291  and  _293
REMARK  126  A    between atoms: _293  and  _294
REMARK  127  A    between atoms: _293  and  _296
REMARK  128  A    between atoms: _296  and  _297
REMARK  129  A    between atoms: _297  and  _298
REMARK  130  A    between atoms: _298  and  _299
REMARK  131  A    between atoms: _308  and  _310
REMARK  132  A    between atoms: _310  and  _311
REMARK  133  A    between atoms: _310  and  _313
REMARK  134  A    between atoms: _316  and  _318
REMARK  135  A    between atoms: _318  and  _319
REMARK  136  A    between atoms: _318  and  _321
REMARK  137  A    between atoms: _321  and  _322
REMARK  138  A    between atoms: _322  and  _323
REMARK  139  A    between atoms: _323  and  _324
REMARK  140  A    between atoms: _333  and  _335
REMARK  141  A    between atoms: _335  and  _336
REMARK  142  A    between atoms: _338  and  _340
REMARK  143  A    between atoms: _340  and  _341
REMARK  144  A    between atoms: _340  and  _343
REMARK  145  A    between atoms: _343  and  _344
REMARK  146  A    between atoms: _350  and  _352
REMARK  147  A    between atoms: _352  and  _353
REMARK  148  A    between atoms: _353  and  _354
REMARK  149  A    between atoms: _353  and  _355
REMARK  150  A    between atoms: _354  and  MG_637
REMARK  151  A    between atoms: _355  and  _357
REMARK  152  A    between atoms: _357  and  _358
REMARK  153  A    between atoms: _357  and  _360
REMARK  154  A    between atoms: _360  and  _361
REMARK  155  A    between atoms: _361  and  _362
REMARK  156  A    between atoms: _362  and  _363
REMARK  157  A    between atoms: _372  and  _374
REMARK  158  A    between atoms: _374  and  _375
REMARK  159  A    between atoms: _374  and  _377
REMARK  160  A    between atoms: _377  and  _378
REMARK  161  A    between atoms: _378  and  _379
REMARK  162  A    between atoms: _384  and  _386
REMARK  163  A    between atoms: _386  and  _387
REMARK  164  A    between atoms: _386  and  _389
REMARK  165  A    between atoms: _389  and  _390
REMARK  166  A    between atoms: _390  and  _391
REMARK  167  A    between atoms: _391  and  _392
REMARK  168  A    between atoms: _392  and  _393
REMARK  169  A    between atoms: _397  and  _399
REMARK  170  A    between atoms: _399  and  _400
REMARK  171  A    between atoms: _399  and  _402
REMARK  172  A    between atoms: _402  and  _403
REMARK  173  A    between atoms: _403  and  _404
REMARK  174  A    between atoms: _409  and  _411
REMARK  175  A    between atoms: _411  and  _412
REMARK  176  A    between atoms: _411  and  _414
REMARK  177  A    between atoms: _414  and  _415
REMARK  178  A    between atoms: _418  and  _420
REMARK  179  A    between atoms: _420  and  _421
REMARK  180  A    between atoms: _420  and  _423
REMARK  181  A    between atoms: _423  and  _424
REMARK  182  A    between atoms: _424  and  _425
REMARK  183  A    between atoms: _428  and  _430
REMARK  184  A    between atoms: _430  and  _431
REMARK  185  A    between atoms: _430  and  _433
REMARK  186  A    between atoms: _434  and  _435
REMARK  187  A    between atoms: _435  and  _436
REMARK  188  A    between atoms: _445  and  _447
REMARK  189  A    between atoms: _447  and  _448
REMARK  190  A    between atoms: _447  and  _450
REMARK  191  A    between atoms: _450  and  _451
REMARK  192  A    between atoms: _454  and  _456
REMARK  193  A    between atoms: _456  and  _457
REMARK  194  A    between atoms: _456  and  _459
REMARK  195  A    between atoms: _459  and  _460
REMARK  196  A    between atoms: _460  and  _461
REMARK  197  A    between atoms: _464  and  _466
REMARK  198  A    between atoms: _466  and  _467
REMARK  199  A    between atoms: _466  and  _469
REMARK  200  A    between atoms: _469  and  _470
REMARK  201  A    between atoms: _476  and  _478
REMARK  202  A    between atoms: _478  and  _479
REMARK  203  A    between atoms: _478  and  _481
REMARK  204  A    between atoms: _481  and  _482
REMARK  205  A    between atoms: _485  and  _487
REMARK  206  A    between atoms: _487  and  _488
REMARK  207  A    between atoms: _487  and  _490
REMARK  208  A    between atoms: _490  and  _491
REMARK  209  A    between atoms: _491  and  _492
REMARK  210  A    between atoms: _497  and  _499
REMARK  211  A    between atoms: _499  and  _500
REMARK  212  A    between atoms: _499  and  _502
REMARK  213  A    between atoms: _502  and  _503
REMARK  214  A    between atoms: _503  and  _504
REMARK  215  A    between atoms: _504  and  _505
REMARK  216  A    between atoms: _505  and  _506
REMARK  217  A    between atoms: _510  and  _512
REMARK  218  A    between atoms: _512  and  _513
REMARK  219  A    between atoms: _512  and  _515
REMARK  220  A    between atoms: _515  and  _516
REMARK  221  A    between atoms: _519  and  _521
REMARK  222  A    between atoms: _521  and  _522
REMARK  223  A    between atoms: _521  and  _524
REMARK  224  A    between atoms: _524  and  _525
REMARK  225  A    between atoms: _525  and  _526
REMARK  226  A    between atoms: _526  and  _527
REMARK  227  A    between atoms: _527  and  _528
REMARK  228  A    between atoms: _532  and  _534
REMARK  229  A    between atoms: _534  and  _535
REMARK  230  A    between atoms: _534  and  _537
REMARK  231  A    between atoms: _537  and  _538
REMARK  232  A    between atoms: _538  and  _539
REMARK  233  A    between atoms: _539  and  _540
REMARK  234  A    between atoms: _549  and  _551
REMARK  235  A    between atoms: _551  and  _552
REMARK  236  A    between atoms: _551  and  _554
REMARK  237  A    between atoms: _554  and  _555
REMARK  238  A    between atoms: _558  and  _560
REMARK  239  A    between atoms: _560  and  _561
REMARK  240  A    between atoms: _563  and  _565
REMARK  241  A    between atoms: _565  and  _566
REMARK  242  A    between atoms: _565  and  _568
REMARK  243  A    between atoms: _568  and  _569
REMARK  244  A    between atoms: _569  and  _570
REMARK  245  A    between atoms: _573  and  _575
REMARK  246  A    between atoms: _575  and  _576
REMARK  247  A    between atoms: _575  and  _578
REMARK  248  A    between atoms: _578  and  _579
REMARK  249  A    between atoms: _584  and  _586
REMARK  250  A    between atoms: _586  and  _587
REMARK  251  A    between atoms: _589  and  _591
REMARK  252  A    between atoms: _591  and  _592
REMARK  253  A    between atoms: _591  and  _594
REMARK  254  A    between atoms: _594  and  _595
REMARK  255  A    between atoms: _598  and  _600
REMARK  256  A    between atoms: _600  and  _601
REMARK  257  A    between atoms: _603  and  _605
REMARK  258  A    between atoms: _605  and  _606
REMARK  259  A    between atoms: _605  and  _608
REMARK  260  A    between atoms: _608  and  _609
REMARK  261  A    between atoms: _609  and  _610
REMARK  262  A    between atoms: _610  and  _611
REMARK  263  A    between atoms: _611  and  _612
REMARK  264  A    between atoms: _616  and  _618
REMARK  265  A    between atoms: _618  and  _619
REMARK  266  A    between atoms: _618  and  _621
REMARK  267  A    between atoms: _621  and  _622
REMARK  268  A    between atoms: _625  and  _627
REMARK  269  A    between atoms: _627  and  _628
REMARK  270  A    between atoms: _627  and  _630
REMARK  271  A    between atoms: _630  and  _631
REMARK                            x       y       z     vdW  Elec       q    Type
REMARK                         _______ _______ _______ _____ _____    ______ ____
ROOT
ATOM      1  CA  ILE A   3      42.720 -17.003  48.912  0.00  0.00    +0.149 C 
ENDROOT
BRANCH   1   4
ATOM      2  C   ILE A   2      40.946 -16.657  50.578  0.00  0.00    +0.241 C 
ATOM      3  O   ILE A   2      41.385 -17.524  51.351  0.00  0.00    -0.273 OA
ATOM      4  N   ILE A   3      41.529 -16.316  49.439  0.00  0.00    -0.297 N 
ATOM      5  H   ILE A   3      41.128 -15.528  48.892  0.00  0.00    +0.150 HD
BRANCH   2   6
ATOM      6  CA  ILE A   2      39.665 -15.941  50.962  0.00  0.00    +0.148 C 
BRANCH   6   8
ATOM      7  C   ALA A   1      37.818 -17.354  50.202  0.00  0.00    +0.238 C 
ATOM      8  N   ILE A   2      38.673 -16.998  51.135  0.00  0.00    -0.297 N 
ATOM      9  H   ILE A   2      38.641 -17.497  52.047  0.00  0.00    +0.150 HD
ATOM     10  O   ALA A   1      37.732 -16.781  49.104  0.00  0.00    -0.274 OA
BRANCH   7  11
ATOM     11  CA  ALA A   1      36.946 -18.563  50.460  0.00  0.00    +0.145 C 
ATOM     12  CB  ALA A   1      37.352 -19.736  49.535  0.00  0.00    +0.028 C 
BRANCH  11  13
ATOM     13  N   ALA A   1      35.550 -18.199  50.272  0.00  0.00    -0.238 NA
ATOM     14  H   ALA A   1      35.238 -17.877  49.334  0.00  0.00    +0.142 HD
ENDBRANCH  11  13
ENDBRANCH   7  11
ENDBRANCH   6   8
BRANCH   6  15
ATOM     15  CB  ILE A   2      39.879 -15.115  52.261  0.00  0.00    +0.027 C 
ATOM     16  CG2 ILE A   2      40.772 -13.935  51.959  0.00  0.00    +0.002 C 
BRANCH  15  17
ATOM     17  CG1 ILE A   2      38.548 -14.588  52.833  0.00  0.00    +0.002 C 
ATOM     18  CD1 ILE A   2      37.666 -13.743  51.782  0.00  0.00    +0.000 C 
ENDBRANCH  15  17
ENDBRANCH   6  15
ENDBRANCH   2   6
ENDBRANCH   1   4
BRANCH   1  19
ATOM     19  C   ILE A   3      43.772 -15.992  48.509  0.00  0.00    +0.241 C 
ATOM     20  O   ILE A   3      43.554 -14.798  48.320  0.00  0.00    -0.273 OA
ATOM     21  N   ARG A   4      44.990 -16.488  48.294  0.00  0.00    -0.298 N 
ATOM     22  H   ARG A   4      45.180 -17.478  48.549  0.00  0.00    +0.150 HD
BRANCH  21  23
ATOM     23  CA  ARG A   4      46.061 -15.697  47.717  0.00  0.00    +0.137 C 
BRANCH  23  24
ATOM     24  C   ARG A   4      45.703 -15.368  46.259  0.00  0.00    +0.227 C 
ATOM     25  O   ARG A   4      45.311 -16.245  45.489  0.00  0.00    -0.286 OA
ENDBRANCH  23  24
BRANCH  23  26
ATOM     26  CB  ARG A   4      47.378 -16.476  47.735  0.00  0.00    +0.031 C 
BRANCH  26  27
ATOM     27  CG  ARG A   4      47.897 -16.769  49.103  0.00  0.00    +0.045 C 
BRANCH  27  28
ATOM     28  CD  ARG A   4      49.106 -17.694  49.023  0.00  0.00    +0.174 C 
BRANCH  28  29
ATOM     29  NE  ARG A   4      49.658 -18.049  50.335  0.00  0.00    -0.265 N 
ATOM     30  CZ  ARG A   4      50.385 -17.258  51.114  0.00  0.00    +0.342 C 
ATOM     31  NH2 ARG A   4      50.737 -17.682  52.295  0.00  0.00    -0.292 N 
ATOM     32 HH21 ARG A   4      51.307 -17.074  52.917  0.00  0.00    +0.255 HD
ATOM     33 HH22 ARG A   4      50.448 -18.628  52.615  0.00  0.00    +0.255 HD
ATOM     34  NH1 ARG A   4      50.718 -16.069  50.676  0.00  0.00    -0.292 N 
ATOM     35 HH11 ARG A   4      51.287 -15.436  51.273  0.00  0.00    +0.255 HD
ATOM     36 HH12 ARG A   4      50.413 -15.759  49.731  0.00  0.00    +0.255 HD
ATOM     37  HE  ARG A   4      49.462 -19.008  50.687  0.00  0.00    +0.259 HD
ENDBRANCH  28  29
ENDBRANCH  27  28
ENDBRANCH  26  27
ENDBRANCH  23  26
ENDBRANCH  21  23
ENDBRANCH   1  19
BRANCH   1  38
ATOM     38  CB  ILE A   3      42.368 -17.961  47.730  0.00  0.00    +0.027 C 
ATOM     39  CG2 ILE A   3      41.366 -19.034  48.186  0.00  0.00    +0.002 C 
BRANCH  38  40
ATOM     40  CG1 ILE A   3      41.931 -17.190  46.503  0.00  0.00    +0.002 C 
ATOM     41  CD1 ILE A   3      41.909 -18.040  45.213  0.00  0.00    +0.000 C 
ENDBRANCH  38  40
ENDBRANCH   1  38
TORSDOF 16
REMARK  Name = ../refined-set-2016/2xbp/2xbp_pocket.pdb
REMARK  271 active torsions:
REMARK  status: ('A' for Active; 'I' for Inactive)
REMARK    1  A    between atoms: _1  and  _3
REMARK    2  A    between atoms: _3  and  _4
REMARK    3  A    between atoms: _3  and  _6
REMARK    4  A    between atoms: _6  and  _7
REMARK    5  A    between atoms: _7  and  _8
REMARK    6  A    between atoms: _8  and  _9
REMARK    7  A    between atoms: _9  and  _10
REMARK    8  A    between atoms: _14  and  _16
REMARK    9  A    between atoms: _16  and  _17
REMARK   10  A    between atoms: _16  and  _19
REMARK   11  A    between atoms: _19  and  _20
REMARK   12  A    between atoms: _20  and  _21
REMARK   13  A    between atoms: _21  and  _22
REMARK   14  A    between atoms: _22  and  _23
REMARK   15  A    between atoms: _27  and  _29
REMARK   16  A    between atoms: _29  and  _30
REMARK   17  A    between atoms: _29  and  _32
REMARK   18  A    between atoms: _32  and  _33
REMARK   19  A    between atoms: _36  and  _38
REMARK   20  A    between atoms: _38  and  _39
REMARK   21  A    between atoms: _38  and  _41
REMARK   22  A    between atoms: _41  and  _42
REMARK   23  A    between atoms: _45  and  _47
REMARK   24  A    between atoms: _47  and  _48
REMARK   25  A    between atoms: _47  and  _50
REMARK   26  A    between atoms: _53  and  _55
REMARK   27  A    between atoms: _55  and  _56
REMARK   28  A    between atoms: _58  and  _60
REMARK   29  A    between atoms: _60  and  _61
REMARK   30  A    between atoms: _60  and  _63
REMARK   31  A    between atoms: _64  and  _65
REMARK   32  A    between atoms: _67  and  _69
REMARK   33  A    between atoms: _69  and  _70
REMARK   34  A    between atoms: _69  and  _72
REMARK   35  A    between atoms: _72  and  _73
REMARK   36  A    between atoms: _76  and  _78
REMARK   37  A    between atoms: _78  and  _79
REMARK   38  A    between atoms: _78  and  _81
REMARK   39  A    between atoms: _84  and  _86
REMARK   40  A    between atoms: _86  and  _87
REMARK   41  A    between atoms: _86  and  _89
REMARK   42  A    between atoms: _89  and  _90
REMARK   43  A    between atoms: _93  and  _95
REMARK   44  A    between atoms: _95  and  _96
REMARK   45  A    between atoms: _95  and  _98
REMARK   46  A    between atoms: _98  and  _99
REMARK   47  A    between atoms: _99  and  _100
REMARK   48  A    between atoms: _103  and  _105
REMARK   49  A    between atoms: _105  and  _106
REMARK   50  A    between atoms: _105  and  _108
REMARK   51  A    between atoms: _108  and  _109
REMARK   52  A    between atoms: _112  and  _114
REMARK   53  A    between atoms: _114  and  _115
REMARK   54  A    between atoms: _114  and  _117
REMARK   55  A    between atoms: _120  and  _122
REMARK   56  A    between atoms: _122  and  _123
REMARK   57  A    between atoms: _122  and  _125
REMARK   58  A    between atoms: _128  and  _130
REMARK   59  A    between atoms: _130  and  _131
REMARK   60  A    between atoms: _130  and  _133
REMARK   61  A    between atoms: _134  and  _135
REMARK   62  A    between atoms: _138  and  _140
REMARK   63  A    between atoms: _140  and  _141
REMARK   64  A    between atoms: _140  and  _143
REMARK   65  A    between atoms: _143  and  _144
REMARK   66  A    between atoms: _144  and  _145
REMARK   67  A    between atoms: _150  and  _152
REMARK   68  A    between atoms: _152  and  _153
REMARK   69  A    between atoms: _152  and  _155
REMARK   70  A    between atoms: _155  and  _156
REMARK   71  A    between atoms: _159  and  _161
REMARK   72  A    between atoms: _161  and  _162
REMARK   73  A    between atoms: _161  and  _164
REMARK   74  A    between atoms: _164  and  _165
REMARK   75  A    between atoms: _168  and  _170
REMARK   76  A    between atoms: _170  and  _171
REMARK   77  A    between atoms: _170  and  _173
REMARK   78  A    between atoms: _173  and  _174
REMARK   79  A    between atoms: _174  and  _175
REMARK   80  A    between atoms: _175  and  _176
REMARK   81  A    between atoms: _185  and  _187
REMARK   82  A    between atoms: _187  and  _188
REMARK   83  A    between atoms: _187  and  _190
REMARK   84  A    between atoms: _190  and  _191
REMARK   85  A    between atoms: _194  and  _196
REMARK   86  A    between atoms: _196  and  _197
REMARK   87  A    between atoms: _196  and  _199
REMARK   88  A    between atoms: _199  and  _200
REMARK   89  A    between atoms: _200  and  _201
REMARK   90  A    between atoms: _201  and  _202
REMARK   91  A    between atoms: _211  and  _213
REMARK   92  A    between atoms: _213  and  _214
REMARK   93  A    between atoms: _213  and  _216
REMARK   94  A    between atoms: _216  and  _217
REMARK   95  A    between atoms: _220  and  _222
REMARK   96  A    between atoms: _222  and  _223
REMARK   97  A    between atoms: _225  and  _227
REMARK   98  A    between atoms: _227  and  _228
REMARK   99  A    between atoms: _227  and  _230
REMARK  100  A    between atoms: _230  and  _231
REMARK  101  A    between atoms: _231  and  _232
REMARK  102  A    between atoms: _235  and  _237
REMARK  103  A    between atoms: _237  and  _238
REMARK  104  A    between atoms: _237  and  _240
REMARK  105  A    between atoms: _240  and  _241
REMARK  106  A    between atoms: _244  and  _246
REMARK  107  A    between atoms: _246  and  _247
REMARK  108  A    between atoms: _250  and  _252
REMARK  109  A    between atoms: _252  and  _253
REMARK  110  A    between atoms: _252  and  _255
REMARK  111  A    between atoms: _255  and  _256
REMARK  112  A    between atoms: _261  and  _262
REMARK  113  A    between atoms: _261  and  _264
REMARK  114  A    between atoms: _264  and  _265
REMARK  115  A    between atoms: _267  and  _269
REMARK  116  A    between atoms: _269  and  _270
REMARK  117  A    between atoms: _273  and  _275
REMARK  118  A    between atoms: _275  and  _276
REMARK  119  A    between atoms: _275  and  _278
REMARK  120  A    between atoms: _278  and  _279
REMARK  121  A    between atoms: _282  and  _284
REMARK  122  A    between atoms: _284  and  _285
REMARK  123  A    between atoms: _284  and  _287
REMARK  124  A    between atoms: _287  and  _288
REMARK  125  A    between atoms: _291  and  _293
REMARK  126  A    between atoms: _293  and  _294
REMARK  127  A    between atoms: _293  and  _296
REMARK  128  A    between atoms: _296  and  _297
REMARK  129  A    between atoms: _297  and  _298
REMARK  130  A    between atoms: _298  and  _299
REMARK  131  A    between atoms: _308  and  _310
REMARK  132  A    between atoms: _310  and  _311
REMARK  133  A    between atoms: _310  and  _313
REMARK  134  A    between atoms: _316  and  _318
REMARK  135  A    between atoms: _318  and  _319
REMARK  136  A    between atoms: _318  and  _321
REMARK  137  A    between atoms: _321  and  _322
REMARK  138  A    between atoms: _322  and  _323
REMARK  139  A    between atoms: _323  and  _324
REMARK  140  A    between atoms: _333  and  _335
REMARK  141  A    between atoms: _335  and  _336
REMARK  142  A    between atoms: _338  and  _340
REMARK  143  A    between atoms: _340  and  _341
REMARK  144  A    between atoms: _340  and  _343
REMARK  145  A    between atoms: _343  and  _344
REMARK  146  A    between atoms: _350  and  _352
REMARK  147  A    between atoms: _352  and  _353
REMARK  148  A    between atoms: _353  and  _354
REMARK  149  A    between atoms: _353  and  _355
REMARK  150  A    between atoms: _354  and  MG_637
REMARK  151  A    between atoms: _355  and  _357
REMARK  152  A    between atoms: _357  and  _358
REMARK  153  A    between atoms: _357  and  _360
REMARK  154  A    between atoms: _360  and  _361
REMARK  155  A    between atoms: _361  and  _362
REMARK  156  A    between atoms: _362  and  _363
REMARK  157  A    between atoms: _372  and  _374
REMARK  158  A    between atoms: _374  and  _375
REMARK  159  A    between atoms: _374  and  _377
REMARK  160  A    between atoms: _377  and  _378
REMARK  161  A    between atoms: _378  and  _379
REMARK  162  A    between atoms: _384  and  _386
REMARK  163  A    between atoms: _386  and  _387
REMARK  164  A    between atoms: _386  and  _389
REMARK  165  A    between atoms: _389  and  _390
REMARK  166  A    between atoms: _390  and  _391
REMARK  167  A    between atoms: _391  and  _392
REMARK  168  A    between atoms: _392  and  _393
REMARK  169  A    between atoms: _397  and  _399
REMARK  170  A    between atoms: _399  and  _400
REMARK  171  A    between atoms: _399  and  _402
REMARK  172  A    between atoms: _402  and  _403
REMARK  173  A    between atoms: _403  and  _404
REMARK  174  A    between atoms: _409  and  _411
REMARK  175  A    between atoms: _411  and  _412
REMARK  176  A    between atoms: _411  and  _414
REMARK  177  A    between atoms: _414  and  _415
REMARK  178  A    between atoms: _418  and  _420
REMARK  179  A    between atoms: _420  and  _421
REMARK  180  A    between atoms: _420  and  _423
REMARK  181  A    between atoms: _423  and  _424
REMARK  182  A    between atoms: _424  and  _425
REMARK  183  A    between atoms: _428  and  _430
REMARK  184  A    between atoms: _430  and  _431
REMARK  185  A    between atoms: _430  and  _433
REMARK  186  A    between atoms: _434  and  _435
REMARK  187  A    between atoms: _435  and  _436
REMARK  188  A    between atoms: _445  and  _447
REMARK  189  A    between atoms: _447  and  _448
REMARK  190  A    between atoms: _447  and  _450
REMARK  191  A    between atoms: _450  and  _451
REMARK  192  A    between atoms: _454  and  _456
REMARK  193  A    between atoms: _456  and  _457
REMARK  194  A    between atoms: _456  and  _459
REMARK  195  A    between atoms: _459  and  _460
REMARK  196  A    between atoms: _460  and  _461
REMARK  197  A    between atoms: _464  and  _466
REMARK  198  A    between atoms: _466  and  _467
REMARK  199  A    between atoms: _466  and  _469
REMARK  200  A    between atoms: _469  and  _470
REMARK  201  A    between atoms: _476  and  _478
REMARK  202  A    between atoms: _478  and  _479
REMARK  203  A    between atoms: _478  and  _481
REMARK  204  A    between atoms: _481  and  _482
REMARK  205  A    between atoms: _485  and  _487
REMARK  206  A    between atoms: _487  and  _488
REMARK  207  A    between atoms: _487  and  _490
REMARK  208  A    between atoms: _490  and  _491
REMARK  209  A    between atoms: _491  and  _492
REMARK  210  A    between atoms: _497  and  _499
REMARK  211  A    between atoms: _499  and  _500
REMARK  212  A    between atoms: _499  and  _502
REMARK  213  A    between atoms: _502  and  _503
REMARK  214  A    between atoms: _503  and  _504
REMARK  215  A    between atoms: _504  and  _505
REMARK  216  A    between atoms: _505  and  _506
REMARK  217  A    between atoms: _510  and  _512
REMARK  218  A    between atoms: _512  and  _513
REMARK  219  A    between atoms: _512  and  _515
REMARK  220  A    between atoms: _515  and  _516
REMARK  221  A    between atoms: _519  and  _521
REMARK  222  A    between atoms: _521  and  _522
REMARK  223  A    between atoms: _521  and  _524
REMARK  224  A    between atoms: _524  and  _525
REMARK  225  A    between atoms: _525  and  _526
REMARK  226  A    between atoms: _526  and  _527
REMARK  227  A    between atoms: _527  and  _528
REMARK  228  A    between atoms: _532  and  _534
REMARK  229  A    between atoms: _534  and  _535
REMARK  230  A    between atoms: _534  and  _537
REMARK  231  A    between atoms: _537  and  _538
REMARK  232  A    between atoms: _538  and  _539
REMARK  233  A    between atoms: _539  and  _540
REMARK  234  A    between atoms: _549  and  _551
REMARK  235  A    between atoms: _551  and  _552
REMARK  236  A    between atoms: _551  and  _554
REMARK  237  A    between atoms: _554  and  _555
REMARK  238  A    between atoms: _558  and  _560
REMARK  239  A    between atoms: _560  and  _561
REMARK  240  A    between atoms: _563  and  _565
REMARK  241  A    between atoms: _565  and  _566
REMARK  242  A    between atoms: _565  and  _568
REMARK  243  A    between atoms: _568  and  _569
REMARK  244  A    between atoms: _569  and  _570
REMARK  245  A    between atoms: _573  and  _575
REMARK  246  A    between atoms: _575  and  _576
REMARK  247  A    between atoms: _575  and  _578
REMARK  248  A    between atoms: _578  and  _579
REMARK  249  A    between atoms: _584  and  _586
REMARK  250  A    between atoms: _586  and  _587
REMARK  251  A    between atoms: _589  and  _591
REMARK  252  A    between atoms: _591  and  _592
REMARK  253  A    between atoms: _591  and  _594
REMARK  254  A    between atoms: _594  and  _595
REMARK  255  A    between atoms: _598  and  _600
REMARK  256  A    between atoms: _600  and  _601
REMARK  257  A    between atoms: _603  and  _605
REMARK  258  A    between atoms: _605  and  _606
REMARK  259  A    between atoms: _605  and  _608
REMARK  260  A    between atoms: _608  and  _609
REMARK  261  A    between atoms: _609  and  _610
REMARK  262  A    between atoms: _610  and  _611
REMARK  263  A    between atoms: _611  and  _612
REMARK  264  A    between atoms: _616  and  _618
REMARK  265  A    between atoms: _618  and  _619
REMARK  266  A    between atoms: _618  and  _621
REMARK  267  A    between atoms: _621  and  _622
REMARK  268  A    between atoms: _625  and  _627
REMARK  269  A    between atoms: _627  and  _628
REMARK  270  A    between atoms: _627  and  _630
REMARK  271  A    between atoms: _630  and  _631
REMARK                            x       y       z     vdW  Elec       q    Type
REMARK                         _______ _______ _______ _____ _____    ______ ____
ROOT
ATOM      1  C   UNK A   0      46.438 -13.073  60.319  0.00  0.00    +0.000 C 
ENDROOT
BRANCH   1   2
ATOM      2  N   ARG A   1      46.549 -12.440  61.459  0.00  0.00    +0.000 NA
ATOM      3  H   ARG A   1      45.727 -11.920  61.826  0.00  0.00    +0.000 HD
BRANCH   2   4
ATOM      4  CA  ARG A   1      47.800 -12.438  62.243  0.00  0.00    +0.000 C 
BRANCH   4   5
ATOM      5  C   ARG A   1      47.597 -13.418  63.359  0.00  0.00    +0.000 C 
ATOM      6  O   ARG A   1      47.142 -13.020  64.385  0.00  0.00    +0.000 OA
ATOM      7  N   GLN A   2      47.994 -14.659  63.274  0.00  0.00    +0.000 N 
ATOM      8  H   GLN A   2      48.318 -15.043  62.364  0.00  0.00    +0.000 HD
BRANCH   7   9
ATOM      9  CA  GLN A   2      47.980 -15.513  64.478  0.00  0.00    +0.000 C 
BRANCH   9  10
ATOM     10  C   GLN A   2      49.067 -14.931  65.384  0.00  0.00    +0.000 C 
ATOM     11  N   LYS A   3      48.864 -15.188  66.678  0.00  0.00    +0.000 N 
ATOM     12  H   LYS A   3      48.053 -15.765  66.978  0.00  0.00    +0.000 HD
ATOM     13  O   GLN A   2      50.071 -14.380  65.072  0.00  0.00    +0.000 OA
BRANCH  11  14
ATOM     14  CA  LYS A   3      49.784 -14.655  67.657  0.00  0.00    +0.000 C 
BRANCH  14  15
ATOM     15  C   LYS A   3      51.249 -14.818  67.453  0.00  0.00    +0.000 C 
ATOM     16  O   LYS A   3      51.790 -15.941  67.281  0.00  0.00    +0.000 OA
ENDBRANCH  14  15
BRANCH  14  17
ATOM     17  CB  LYS A   3      49.547 -15.373  69.038  0.00  0.00    +0.000 C 
BRANCH  17  18
ATOM     18  CG  LYS A   3      50.468 -14.931  70.152  0.00  0.00    +0.000 C 
BRANCH  18  19
ATOM     19  CD  LYS A   3      51.123 -16.084  71.113  0.00  0.00    +0.000 C 
BRANCH  19  20
ATOM     20  CE  LYS A   3      50.182 -16.503  72.283  0.00  0.00    +0.000 C 
BRANCH  20  21
ATOM     21  NZ  LYS A   3      50.876 -16.972  73.558  0.00  0.00    +0.000 N 
ATOM     22  HZ1 LYS A   3      50.160 -17.225  74.268  0.00  0.00    +0.000 HD
ATOM     23  HZ2 LYS A   3      51.476 -16.206  73.927  0.00  0.00    +0.000 HD
ATOM     24  HZ3 LYS A   3      51.464 -17.803  73.346  0.00  0.00    +0.000 HD
ENDBRANCH  20  21
ENDBRANCH  19  20
ENDBRANCH  18  19
ENDBRANCH  17  18
ENDBRANCH  14  17
ENDBRANCH  11  14
ENDBRANCH   9  10
BRANCH   9  25
ATOM     25  CB  GLN A   2      48.215 -16.919  64.141  0.00  0.00    +0.000 C 
BRANCH  25  26
ATOM     26  CG  GLN A   2      47.113 -17.604  63.379  0.00  0.00    +0.000 C 
BRANCH  26  27
ATOM     27  CD  GLN A   2      47.052 -19.155  63.670  0.00  0.00    +0.000 C 
ATOM     28  NE2 GLN A   2      46.708 -19.476  64.874  0.00  0.00    +0.000 N 
ATOM     29 HE21 GLN A   2      46.531 -18.733  65.580  0.00  0.00    +0.000 HD
ATOM     30 HE22 GLN A   2      46.608 -20.477  65.137  0.00  0.00    +0.000 HD
ATOM     31  OE1 GLN A   2      47.285 -20.081  62.744  0.00  0.00    +0.000 OA
ENDBRANCH  26  27
ENDBRANCH  25  26
ENDBRANCH   9  25
ENDBRANCH   7   9
ENDBRANCH   4   5
BRANCH   4  32
ATOM     32  CB  ARG A   1      48.195 -11.062  62.706  0.00  0.00    +0.000 C 
BRANCH  32  33
ATOM     33  CG  ARG A   1      49.641 -11.193  63.198  0.00  0.00    +0.000 C 
BRANCH  33  34
ATOM     34  CD  ARG A   1      50.144 -10.073  64.064  0.00  0.00    +0.000 C 
BRANCH  34  35
ATOM     35  NE  ARG A   1      51.524 -10.280  64.429  0.00  0.00    +0.330 N 
ATOM     36  CZ  ARG A   1      52.309  -9.537  65.193  0.00  0.00    +0.000 C 
ATOM     37  NH2 ARG A   1      51.808  -8.373  65.751  0.00  0.00    +0.330 N 
ATOM     38 HH21 ARG A   1      52.416  -7.781  66.353  0.00  0.00    +0.000 HD
ATOM     39 HH22 ARG A   1      50.824  -8.090  65.568  0.00  0.00    +0.000 HD
ATOM     40  NH1 ARG A   1      53.592  -9.958  65.371  0.00  0.00    +0.330 N 
ATOM     41 HH11 ARG A   1      54.243  -9.405  65.964  0.00  0.00    +0.000 HD
ATOM     42 HH12 ARG A   1      53.920 -10.833  64.914  0.00  0.00    +0.000 HD
ATOM     43  HE  ARG A   1      51.965 -11.136  64.036  0.00  0.00    +0.000 HD
ENDBRANCH  34  35
ENDBRANCH  33  34
ENDBRANCH  32  33
ENDBRANCH   4  32
ENDBRANCH   2   4
ENDBRANCH   1   2
BRANCH   1  44
ATOM     44  O   UNK A   0      47.357 -13.783  59.866  0.00  0.00    +0.000 OA
BRANCH  44  45
ATOM     45 MG   UNK A   0      47.666 -15.651  59.063  0.00  0.00    +0.000 Mg
ATOM     46  O   UNK A   0      49.129 -14.843  57.856  0.00  0.00    +0.000 OA
ENDBRANCH  44  45
ENDBRANCH   1  44
BRANCH   1  47
ATOM     47  C   UNK A   0      45.209 -12.840  59.508  0.00  0.00    +0.000 C 
BRANCH  47  49
ATOM     48  C   UNK A   0      44.601 -10.791  58.293  0.00  0.00    +0.000 C 
ATOM     49  N   UNK A   0      45.485 -11.688  58.645  0.00  0.00    +0.000 N 
ATOM     50  H   UNK A   0      46.455 -11.576  58.286  0.00  0.00    +0.000 HD
ATOM     51  O   UNK A   0      43.398 -10.863  58.622  0.00  0.00    +0.000 OA
BRANCH  48  52
ATOM     52  C   UNK A   0      45.121  -9.576  57.571  0.00  0.00    +0.000 C 
BRANCH  52  54
ATOM     53  C   UNK A   0      44.180  -8.676  55.493  0.00  0.00    +0.000 C 
ATOM     54  N   UNK A   0      44.026  -8.993  56.783  0.00  0.00    +0.000 N 
ATOM     55  H   UNK A   0      43.108  -8.823  57.240  0.00  0.00    +0.000 HD
ATOM     56  O   UNK A   0      45.308  -8.516  54.995  0.00  0.00    +0.000 OA
BRANCH  53  57
ATOM     57  C   UNK A   0      42.922  -8.494  54.727  0.00  0.00    +0.000 C 
BRANCH  57  59
ATOM     58  C   UNK A   0      42.104  -7.399  52.786  0.00  0.00    +0.000 C 
ATOM     59  N   UNK A   0      43.133  -7.888  53.430  0.00  0.00    +0.000 N 
ATOM     60  H   UNK A   0      44.086  -7.842  53.017  0.00  0.00    +0.000 HD
ATOM     61  O   UNK A   0      40.959  -7.437  53.245  0.00  0.00    +0.000 OA
BRANCH  58  62
ATOM     62  C   UNK A   0      42.326  -6.794  51.424  0.00  0.00    +0.000 C 
BRANCH  62  64
ATOM     63  C   UNK A   0      41.034  -7.385  49.450  0.00  0.00    +0.000 C 
ATOM     64  N   UNK A   0      41.115  -6.838  50.653  0.00  0.00    +0.000 N 
ATOM     65  H   UNK A   0      40.256  -6.418  51.061  0.00  0.00    +0.000 HD
ATOM     66  O   UNK A   0      42.009  -7.738  48.825  0.00  0.00    +0.000 OA
BRANCH  63  67
ATOM     67  C   UNK A   0      39.608  -7.601  48.951  0.00  0.00    +0.000 C 
BRANCH  67  68
ATOM     68  C   UNK A   0      38.850  -8.635  49.829  0.00  0.00    +0.000 C 
ATOM     69  C   UNK A   0      39.633  -9.938  50.038  0.00  0.00    +0.000 C 
ATOM     70  C   UNK A   0      37.479  -8.940  49.267  0.00  0.00    +0.000 C 
ENDBRANCH  67  68
BRANCH  67  71
ATOM     71  N   UNK A   0      39.700  -8.080  47.574  0.00  0.00    +0.000 NA
ATOM     72  H   UNK A   0      40.422  -8.794  47.346  0.00  0.00    +0.000 HD
ENDBRANCH  67  71
ENDBRANCH  63  67
ENDBRANCH  62  64
BRANCH  62  73
ATOM     73  C   UNK A   0      42.884  -5.367  51.593  0.00  0.00    +0.000 C 
BRANCH  73  74
ATOM     74  C   UNK A   0      43.280  -4.627  50.397  0.00  0.00    +0.000 C 
BRANCH  74  75
ATOM     75  C   UNK A   0      43.431  -3.005  50.895  0.00  0.00    +0.000 C 
BRANCH  75  76
ATOM     76  N   UNK A   0      42.101  -2.218  50.996  0.00  0.00    +0.330 N 
ATOM     77  C   UNK A   0      41.895  -1.048  51.622  0.00  0.00    +0.000 C 
ATOM     78  N   UNK A   0      42.912  -0.453  52.271  0.00  0.00    +0.330 N 
ATOM     79  H   UNK A   0      42.759   0.453  52.758  0.00  0.00    +0.000 HD
ATOM     80  H   UNK A   0      43.851  -0.899  52.286  0.00  0.00    +0.000 HD
ATOM     81  N   UNK A   0      40.723  -0.435  51.534  0.00  0.00    +0.330 N 
ATOM     82  H   UNK A   0      40.572   0.471  52.022  0.00  0.00    +0.000 HD
ATOM     83  H   UNK A   0      39.954  -0.860  50.977  0.00  0.00    +0.000 HD
ATOM     84  H   UNK A   0      41.276  -2.643  50.527  0.00  0.00    +0.000 HD
ENDBRANCH  75  76
ENDBRANCH  74  75
ENDBRANCH  73  74
ENDBRANCH  62  73
ENDBRANCH  58  62
ENDBRANCH  57  59
ENDBRANCH  53  57
ENDBRANCH  52  54
BRANCH  52  85
ATOM     85  C   UNK A   0      45.854  -8.604  58.467  0.00  0.00    +0.000 C 
BRANCH  85  86
ATOM     86  C   UNK A   0      45.099  -8.106  59.650  0.00  0.00    +0.000 A 
ATOM     87  C   UNK A   0      45.129  -8.815  60.800  0.00  0.00    +0.000 A 
ATOM     88  C   UNK A   0      44.414  -8.370  61.959  0.00  0.00    +0.000 A 
ATOM     89  C   UNK A   0      43.732  -7.234  61.887  0.00  0.00    +0.000 A 
ATOM     90  C   UNK A   0      43.767  -6.486  60.777  0.00  0.00    +0.000 A 
ATOM     91  C   UNK A   0      44.423  -6.942  59.628  0.00  0.00    +0.000 A 
ENDBRANCH  85  86
ENDBRANCH  52  85
ENDBRANCH  48  52
ENDBRANCH  47  49
ENDBRANCH   1  47
TORSDOF 38
REMARK  Name = ../refined-set-2016/2xbp/2xbp_pocket.pdb
REMARK  271 active torsions:
REMARK  status: ('A' for Active; 'I' for Inactive)
REMARK    1  A    between atoms: _1  and  _3
REMARK    2  A    between atoms: _3  and  _4
REMARK    3  A    between atoms: _3  and  _6
REMARK    4  A    between atoms: _6  and  _7
REMARK    5  A    between atoms: _7  and  _8
REMARK    6  A    between atoms: _8  and  _9
REMARK    7  A    between atoms: _9  and  _10
REMARK    8  A    between atoms: _14  and  _16
REMARK    9  A    between atoms: _16  and  _17
REMARK   10  A    between atoms: _16  and  _19
REMARK   11  A    between atoms: _19  and  _20
REMARK   12  A    between atoms: _20  and  _21
REMARK   13  A    between atoms: _21  and  _22
REMARK   14  A    between atoms: _22  and  _23
REMARK   15  A    between atoms: _27  and  _29
REMARK   16  A    between atoms: _29  and  _30
REMARK   17  A    between atoms: _29  and  _32
REMARK   18  A    between atoms: _32  and  _33
REMARK   19  A    between atoms: _36  and  _38
REMARK   20  A    between atoms: _38  and  _39
REMARK   21  A    between atoms: _38  and  _41
REMARK   22  A    between atoms: _41  and  _42
REMARK   23  A    between atoms: _45  and  _47
REMARK   24  A    between atoms: _47  and  _48
REMARK   25  A    between atoms: _47  and  _50
REMARK   26  A    between atoms: _53  and  _55
REMARK   27  A    between atoms: _55  and  _56
REMARK   28  A    between atoms: _58  and  _60
REMARK   29  A    between atoms: _60  and  _61
REMARK   30  A    between atoms: _60  and  _63
REMARK   31  A    between atoms: _64  and  _65
REMARK   32  A    between atoms: _67  and  _69
REMARK   33  A    between atoms: _69  and  _70
REMARK   34  A    between atoms: _69  and  _72
REMARK   35  A    between atoms: _72  and  _73
REMARK   36  A    between atoms: _76  and  _78
REMARK   37  A    between atoms: _78  and  _79
REMARK   38  A    between atoms: _78  and  _81
REMARK   39  A    between atoms: _84  and  _86
REMARK   40  A    between atoms: _86  and  _87
REMARK   41  A    between atoms: _86  and  _89
REMARK   42  A    between atoms: _89  and  _90
REMARK   43  A    between atoms: _93  and  _95
REMARK   44  A    between atoms: _95  and  _96
REMARK   45  A    between atoms: _95  and  _98
REMARK   46  A    between atoms: _98  and  _99
REMARK   47  A    between atoms: _99  and  _100
REMARK   48  A    between atoms: _103  and  _105
REMARK   49  A    between atoms: _105  and  _106
REMARK   50  A    between atoms: _105  and  _108
REMARK   51  A    between atoms: _108  and  _109
REMARK   52  A    between atoms: _112  and  _114
REMARK   53  A    between atoms: _114  and  _115
REMARK   54  A    between atoms: _114  and  _117
REMARK   55  A    between atoms: _120  and  _122
REMARK   56  A    between atoms: _122  and  _123
REMARK   57  A    between atoms: _122  and  _125
REMARK   58  A    between atoms: _128  and  _130
REMARK   59  A    between atoms: _130  and  _131
REMARK   60  A    between atoms: _130  and  _133
REMARK   61  A    between atoms: _134  and  _135
REMARK   62  A    between atoms: _138  and  _140
REMARK   63  A    between atoms: _140  and  _141
REMARK   64  A    between atoms: _140  and  _143
REMARK   65  A    between atoms: _143  and  _144
REMARK   66  A    between atoms: _144  and  _145
REMARK   67  A    between atoms: _150  and  _152
REMARK   68  A    between atoms: _152  and  _153
REMARK   69  A    between atoms: _152  and  _155
REMARK   70  A    between atoms: _155  and  _156
REMARK   71  A    between atoms: _159  and  _161
REMARK   72  A    between atoms: _161  and  _162
REMARK   73  A    between atoms: _161  and  _164
REMARK   74  A    between atoms: _164  and  _165
REMARK   75  A    between atoms: _168  and  _170
REMARK   76  A    between atoms: _170  and  _171
REMARK   77  A    between atoms: _170  and  _173
REMARK   78  A    between atoms: _173  and  _174
REMARK   79  A    between atoms: _174  and  _175
REMARK   80  A    between atoms: _175  and  _176
REMARK   81  A    between atoms: _185  and  _187
REMARK   82  A    between atoms: _187  and  _188
REMARK   83  A    between atoms: _187  and  _190
REMARK   84  A    between atoms: _190  and  _191
REMARK   85  A    between atoms: _194  and  _196
REMARK   86  A    between atoms: _196  and  _197
REMARK   87  A    between atoms: _196  and  _199
REMARK   88  A    between atoms: _199  and  _200
REMARK   89  A    between atoms: _200  and  _201
REMARK   90  A    between atoms: _201  and  _202
REMARK   91  A    between atoms: _211  and  _213
REMARK   92  A    between atoms: _213  and  _214
REMARK   93  A    between atoms: _213  and  _216
REMARK   94  A    between atoms: _216  and  _217
REMARK   95  A    between atoms: _220  and  _222
REMARK   96  A    between atoms: _222  and  _223
REMARK   97  A    between atoms: _225  and  _227
REMARK   98  A    between atoms: _227  and  _228
REMARK   99  A    between atoms: _227  and  _230
REMARK  100  A    between atoms: _230  and  _231
REMARK  101  A    between atoms: _231  and  _232
REMARK  102  A    between atoms: _235  and  _237
REMARK  103  A    between atoms: _237  and  _238
REMARK  104  A    between atoms: _237  and  _240
REMARK  105  A    between atoms: _240  and  _241
REMARK  106  A    between atoms: _244  and  _246
REMARK  107  A    between atoms: _246  and  _247
REMARK  108  A    between atoms: _250  and  _252
REMARK  109  A    between atoms: _252  and  _253
REMARK  110  A    between atoms: _252  and  _255
REMARK  111  A    between atoms: _255  and  _256
REMARK  112  A    between atoms: _261  and  _262
REMARK  113  A    between atoms: _261  and  _264
REMARK  114  A    between atoms: _264  and  _265
REMARK  115  A    between atoms: _267  and  _269
REMARK  116  A    between atoms: _269  and  _270
REMARK  117  A    between atoms: _273  and  _275
REMARK  118  A    between atoms: _275  and  _276
REMARK  119  A    between atoms: _275  and  _278
REMARK  120  A    between atoms: _278  and  _279
REMARK  121  A    between atoms: _282  and  _284
REMARK  122  A    between atoms: _284  and  _285
REMARK  123  A    between atoms: _284  and  _287
REMARK  124  A    between atoms: _287  and  _288
REMARK  125  A    between atoms: _291  and  _293
REMARK  126  A    between atoms: _293  and  _294
REMARK  127  A    between atoms: _293  and  _296
REMARK  128  A    between atoms: _296  and  _297
REMARK  129  A    between atoms: _297  and  _298
REMARK  130  A    between atoms: _298  and  _299
REMARK  131  A    between atoms: _308  and  _310
REMARK  132  A    between atoms: _310  and  _311
REMARK  133  A    between atoms: _310  and  _313
REMARK  134  A    between atoms: _316  and  _318
REMARK  135  A    between atoms: _318  and  _319
REMARK  136  A    between atoms: _318  and  _321
REMARK  137  A    between atoms: _321  and  _322
REMARK  138  A    between atoms: _322  and  _323
REMARK  139  A    between atoms: _323  and  _324
REMARK  140  A    between atoms: _333  and  _335
REMARK  141  A    between atoms: _335  and  _336
REMARK  142  A    between atoms: _338  and  _340
REMARK  143  A    between atoms: _340  and  _341
REMARK  144  A    between atoms: _340  and  _343
REMARK  145  A    between atoms: _343  and  _344
REMARK  146  A    between atoms: _350  and  _352
REMARK  147  A    between atoms: _352  and  _353
REMARK  148  A    between atoms: _353  and  _354
REMARK  149  A    between atoms: _353  and  _355
REMARK  150  A    between atoms: _354  and  MG_637
REMARK  151  A    between atoms: _355  and  _357
REMARK  152  A    between atoms: _357  and  _358
REMARK  153  A    between atoms: _357  and  _360
REMARK  154  A    between atoms: _360  and  _361
REMARK  155  A    between atoms: _361  and  _362
REMARK  156  A    between atoms: _362  and  _363
REMARK  157  A    between atoms: _372  and  _374
REMARK  158  A    between atoms: _374  and  _375
REMARK  159  A    between atoms: _374  and  _377
REMARK  160  A    between atoms: _377  and  _378
REMARK  161  A    between atoms: _378  and  _379
REMARK  162  A    between atoms: _384  and  _386
REMARK  163  A    between atoms: _386  and  _387
REMARK  164  A    between atoms: _386  and  _389
REMARK  165  A    between atoms: _389  and  _390
REMARK  166  A    between atoms: _390  and  _391
REMARK  167  A    between atoms: _391  and  _392
REMARK  168  A    between atoms: _392  and  _393
REMARK  169  A    between atoms: _397  and  _399
REMARK  170  A    between atoms: _399  and  _400
REMARK  171  A    between atoms: _399  and  _402
REMARK  172  A    between atoms: _402  and  _403
REMARK  173  A    between atoms: _403  and  _404
REMARK  174  A    between atoms: _409  and  _411
REMARK  175  A    between atoms: _411  and  _412
REMARK  176  A    between atoms: _411  and  _414
REMARK  177  A    between atoms: _414  and  _415
REMARK  178  A    between atoms: _418  and  _420
REMARK  179  A    between atoms: _420  and  _421
REMARK  180  A    between atoms: _420  and  _423
REMARK  181  A    between atoms: _423  and  _424
REMARK  182  A    between atoms: _424  and  _425
REMARK  183  A    between atoms: _428  and  _430
REMARK  184  A    between atoms: _430  and  _431
REMARK  185  A    between atoms: _430  and  _433
REMARK  186  A    between atoms: _434  and  _435
REMARK  187  A    between atoms: _435  and  _436
REMARK  188  A    between atoms: _445  and  _447
REMARK  189  A    between atoms: _447  and  _448
REMARK  190  A    between atoms: _447  and  _450
REMARK  191  A    between atoms: _450  and  _451
REMARK  192  A    between atoms: _454  and  _456
REMARK  193  A    between atoms: _456  and  _457
REMARK  194  A    between atoms: _456  and  _459
REMARK  195  A    between atoms: _459  and  _460
REMARK  196  A    between atoms: _460  and  _461
REMARK  197  A    between atoms: _464  and  _466
REMARK  198  A    between atoms: _466  and  _467
REMARK  199  A    between atoms: _466  and  _469
REMARK  200  A    between atoms: _469  and  _470
REMARK  201  A    between atoms: _476  and  _478
REMARK  202  A    between atoms: _478  and  _479
REMARK  203  A    between atoms: _478  and  _481
REMARK  204  A    between atoms: _481  and  _482
REMARK  205  A    between atoms: _485  and  _487
REMARK  206  A    between atoms: _487  and  _488
REMARK  207  A    between atoms: _487  and  _490
REMARK  208  A    between atoms: _490  and  _491
REMARK  209  A    between atoms: _491  and  _492
REMARK  210  A    between atoms: _497  and  _499
REMARK  211  A    between atoms: _499  and  _500
REMARK  212  A    between atoms: _499  and  _502
REMARK  213  A    between atoms: _502  and  _503
REMARK  214  A    between atoms: _503  and  _504
REMARK  215  A    between atoms: _504  and  _505
REMARK  216  A    between atoms: _505  and  _506
REMARK  217  A    between atoms: _510  and  _512
REMARK  218  A    between atoms: _512  and  _513
REMARK  219  A    between atoms: _512  and  _515
REMARK  220  A    between atoms: _515  and  _516
REMARK  221  A    between atoms: _519  and  _521
REMARK  222  A    between atoms: _521  and  _522
REMARK  223  A    between atoms: _521  and  _524
REMARK  224  A    between atoms: _524  and  _525
REMARK  225  A    between atoms: _525  and  _526
REMARK  226  A    between atoms: _526  and  _527
REMARK  227  A    between atoms: _527  and  _528
REMARK  228  A    between atoms: _532  and  _534
REMARK  229  A    between atoms: _534  and  _535
REMARK  230  A    between atoms: _534  and  _537
REMARK  231  A    between atoms: _537  and  _538
REMARK  232  A    between atoms: _538  and  _539
REMARK  233  A    between atoms: _539  and  _540
REMARK  234  A    between atoms: _549  and  _551
REMARK  235  A    between atoms: _551  and  _552
REMARK  236  A    between atoms: _551  and  _554
REMARK  237  A    between atoms: _554  and  _555
REMARK  238  A    between atoms: _558  and  _560
REMARK  239  A    between atoms: _560  and  _561
REMARK  240  A    between atoms: _563  and  _565
REMARK  241  A    between atoms: _565  and  _566
REMARK  242  A    between atoms: _565  and  _568
REMARK  243  A    between atoms: _568  and  _569
REMARK  244  A    between atoms: _569  and  _570
REMARK  245  A    between atoms: _573  and  _575
REMARK  246  A    between atoms: _575  and  _576
REMARK  247  A    between atoms: _575  and  _578
REMARK  248  A    between atoms: _578  and  _579
REMARK  249  A    between atoms: _584  and  _586
REMARK  250  A    between atoms: _586  and  _587
REMARK  251  A    between atoms: _589  and  _591
REMARK  252  A    between atoms: _591  and  _592
REMARK  253  A    between atoms: _591  and  _594
REMARK  254  A    between atoms: _594  and  _595
REMARK  255  A    between atoms: _598  and  _600
REMARK  256  A    between atoms: _600  and  _601
REMARK  257  A    between atoms: _603  and  _605
REMARK  258  A    between atoms: _605  and  _606
REMARK  259  A    between atoms: _605  and  _608
REMARK  260  A    between atoms: _608  and  _609
REMARK  261  A    between atoms: _609  and  _610
REMARK  262  A    between atoms: _610  and  _611
REMARK  263  A    between atoms: _611  and  _612
REMARK  264  A    between atoms: _616  and  _618
REMARK  265  A    between atoms: _618  and  _619
REMARK  266  A    between atoms: _618  and  _621
REMARK  267  A    between atoms: _621  and  _622
REMARK  268  A    between atoms: _625  and  _627
REMARK  269  A    between atoms: _627  and  _628
REMARK  270  A    between atoms: _627  and  _630
REMARK  271  A    between atoms: _630  and  _631
REMARK                            x       y       z     vdW  Elec       q    Type
REMARK                         _______ _______ _______ _____ _____    ______ ____
ROOT
ATOM      1  CA  GLU A   3      53.167 -12.937  56.983  0.00  0.00    +0.149 C 
ENDROOT
BRANCH   1   4
ATOM      2  C   THR A   2      54.152 -13.133  59.213  0.00  0.00    +0.243 C 
ATOM      3  O   THR A   2      54.531 -14.313  59.032  0.00  0.00    -0.273 OA
ATOM      4  N   GLU A   3      53.505 -12.434  58.299  0.00  0.00    -0.297 N 
ATOM      5  H   GLU A   3      53.220 -11.463  58.538  0.00  0.00    +0.150 HD
BRANCH   2   6
ATOM      6  CA  THR A   2      54.415 -12.437  60.513  0.00  0.00    +0.176 C 
BRANCH   6   9
ATOM      7  C   GLN A   1      53.732 -13.303  62.723  0.00  0.00    +0.238 C 
ATOM      8  O   GLN A   1      53.172 -12.250  63.045  0.00  0.00    -0.274 OA
ATOM      9  N   THR A   2      54.476 -13.433  61.596  0.00  0.00    -0.295 N 
ATOM     10  H   THR A   2      55.104 -14.256  61.495  0.00  0.00    +0.150 HD
BRANCH   7  11
ATOM     11  CA  GLN A   1      53.622 -14.541  63.572  0.00  0.00    +0.145 C 
BRANCH  11  12
ATOM     12  N   GLN A   1      53.180 -14.138  64.942  0.00  0.00    -0.238 NA
ATOM     13  H   GLN A   1      52.178 -13.900  65.088  0.00  0.00    +0.142 HD
ENDBRANCH  11  12
BRANCH  11  14
ATOM     14  CB  GLN A   1      52.662 -15.562  62.970  0.00  0.00    +0.036 C 
BRANCH  14  15
ATOM     15  CG  GLN A   1      52.420 -16.761  63.854  0.00  0.00    +0.087 C 
BRANCH  15  16
ATOM     16  CD  GLN A   1      53.643 -17.553  64.067  0.00  0.00    +0.219 C 
ATOM     17  NE2 GLN A   1      54.008 -17.698  65.335  0.00  0.00    -0.329 N 
ATOM     18 HE21 GLN A   1      53.440 -17.266  66.092  0.00  0.00    +0.145 HD
ATOM     19 HE22 GLN A   1      54.862 -18.243  65.571  0.00  0.00    +0.145 HD
ATOM     20  OE1 GLN A   1      54.292 -18.053  63.115  0.00  0.00    -0.275 OA
ENDBRANCH  15  16
ENDBRANCH  14  15
ENDBRANCH  11  14
ENDBRANCH   7  11
ENDBRANCH   6   9
BRANCH   6  21
ATOM     21  CB  THR A   2      55.678 -11.589  60.403  0.00  0.00    +0.137 C 
ATOM     22  CG2 THR A   2      55.994 -10.834  61.712  0.00  0.00    +0.034 C 
BRANCH  21  23
ATOM     23  OG1 THR A   2      56.799 -12.433  60.100  0.00  0.00    -0.382 OA
ATOM     24  HG1 THR A   2      57.617 -11.880  60.029  0.00  0.00    +0.210 HD
ENDBRANCH  21  23
ENDBRANCH   6  21
ENDBRANCH   2   6
ENDBRANCH   1   4
BRANCH   1  25
ATOM     25  C   GLU A   3      54.176 -12.400  56.004  0.00  0.00    +0.241 C 
ATOM     26  O   GLU A   3      54.412 -11.182  55.913  0.00  0.00    -0.273 OA
ATOM     27  N   ARG A   4      54.726 -13.241  55.194  0.00  0.00    -0.295 N 
ATOM     28  H   ARG A   4      54.461 -14.243  55.283  0.00  0.00    +0.150 HD
BRANCH  27  29
ATOM     29  CA  ARG A   4      55.694 -12.884  54.163  0.00  0.00    +0.159 C 
BRANCH  29  30
ATOM     30  C   ARG A   4      55.007 -12.513  52.849  0.00  0.00    +0.231 C 
ATOM     31  O   ARG A   4      54.103 -13.222  52.377  0.00  0.00    -0.286 OA
ENDBRANCH  29  30
BRANCH  29  32
ATOM     32  CB  ARG A   4      56.632 -14.049  53.888  0.00  0.00    -0.000 C 
ATOM     33  CG  ARG A   4      57.738 -13.765  52.870  0.00  0.00    +0.014 C 
BRANCH  33  34
ATOM     34  CD  ARG A   4      58.871 -14.749  52.725  0.00  0.00    +0.200 C 
BRANCH  34  35
ATOM     35  NE  ARG A   4      59.285 -15.316  53.999  0.00  0.00    -0.261 N 
ATOM     36  CZ  ARG A   4      60.063 -14.800  54.934  0.00  0.00    +0.342 C 
ATOM     37  NH2 ARG A   4      60.276 -15.566  56.050  0.00  0.00    -0.292 N 
ATOM     38 HH21 ARG A   4      60.880 -15.210  56.818  0.00  0.00    +0.255 HD
ATOM     39 HH22 ARG A   4      59.834 -16.504  56.129  0.00  0.00    +0.255 HD
ATOM     40  NH1 ARG A   4      60.663 -13.572  54.793  0.00  0.00    -0.292 N 
ATOM     41 HH11 ARG A   4      61.269 -13.199  55.552  0.00  0.00    +0.255 HD
ATOM     42 HH12 ARG A   4      60.511 -13.015  53.928  0.00  0.00    +0.255 HD
ATOM     43  HE  ARG A   4      58.915 -16.266  54.204  0.00  0.00    +0.259 HD
ENDBRANCH  34  35
ENDBRANCH  33  34
ENDBRANCH  29  32
ENDBRANCH  27  29
ENDBRANCH   1  25
BRANCH   1  44
ATOM     44  CB  GLU A   3      51.722 -12.545  56.620  0.00  0.00    +0.041 C 
BRANCH  44  45
ATOM     45  CG  GLU A   3      51.397 -13.121  55.230  0.00  0.00    +0.116 C 
BRANCH  45  46
ATOM     46  CD  GLU A   3      49.915 -13.113  54.858  0.00  0.00    +0.365 C 
ATOM     47  OE2 GLU A   3      49.062 -12.978  55.779  0.00  0.00    -0.246 OA
ATOM     48  OE1 GLU A   3      49.606 -13.218  53.662  0.00  0.00    -0.246 OA
ENDBRANCH  45  46
ENDBRANCH  44  45
ENDBRANCH   1  44
TORSDOF 19
REMARK  Name = ../refined-set-2016/2xbp/2xbp_pocket.pdb
REMARK  271 active torsions:
REMARK  status: ('A' for Active; 'I' for Inactive)
REMARK    1  A    between atoms: _1  and  _3
REMARK    2  A    between atoms: _3  and  _4
REMARK    3  A    between atoms: _3  and  _6
REMARK    4  A    between atoms: _6  and  _7
REMARK    5  A    between atoms: _7  and  _8
REMARK    6  A    between atoms: _8  and  _9
REMARK    7  A    between atoms: _9  and  _10
REMARK    8  A    between atoms: _14  and  _16
REMARK    9  A    between atoms: _16  and  _17
REMARK   10  A    between atoms: _16  and  _19
REMARK   11  A    between atoms: _19  and  _20
REMARK   12  A    between atoms: _20  and  _21
REMARK   13  A    between atoms: _21  and  _22
REMARK   14  A    between atoms: _22  and  _23
REMARK   15  A    between atoms: _27  and  _29
REMARK   16  A    between atoms: _29  and  _30
REMARK   17  A    between atoms: _29  and  _32
REMARK   18  A    between atoms: _32  and  _33
REMARK   19  A    between atoms: _36  and  _38
REMARK   20  A    between atoms: _38  and  _39
REMARK   21  A    between atoms: _38  and  _41
REMARK   22  A    between atoms: _41  and  _42
REMARK   23  A    between atoms: _45  and  _47
REMARK   24  A    between atoms: _47  and  _48
REMARK   25  A    between atoms: _47  and  _50
REMARK   26  A    between atoms: _53  and  _55
REMARK   27  A    between atoms: _55  and  _56
REMARK   28  A    between atoms: _58  and  _60
REMARK   29  A    between atoms: _60  and  _61
REMARK   30  A    between atoms: _60  and  _63
REMARK   31  A    between atoms: _64  and  _65
REMARK   32  A    between atoms: _67  and  _69
REMARK   33  A    between atoms: _69  and  _70
REMARK   34  A    between atoms: _69  and  _72
REMARK   35  A    between atoms: _72  and  _73
REMARK   36  A    between atoms: _76  and  _78
REMARK   37  A    between atoms: _78  and  _79
REMARK   38  A    between atoms: _78  and  _81
REMARK   39  A    between atoms: _84  and  _86
REMARK   40  A    between atoms: _86  and  _87
REMARK   41  A    between atoms: _86  and  _89
REMARK   42  A    between atoms: _89  and  _90
REMARK   43  A    between atoms: _93  and  _95
REMARK   44  A    between atoms: _95  and  _96
REMARK   45  A    between atoms: _95  and  _98
REMARK   46  A    between atoms: _98  and  _99
REMARK   47  A    between atoms: _99  and  _100
REMARK   48  A    between atoms: _103  and  _105
REMARK   49  A    between atoms: _105  and  _106
REMARK   50  A    between atoms: _105  and  _108
REMARK   51  A    between atoms: _108  and  _109
REMARK   52  A    between atoms: _112  and  _114
REMARK   53  A    between atoms: _114  and  _115
REMARK   54  A    between atoms: _114  and  _117
REMARK   55  A    between atoms: _120  and  _122
REMARK   56  A    between atoms: _122  and  _123
REMARK   57  A    between atoms: _122  and  _125
REMARK   58  A    between atoms: _128  and  _130
REMARK   59  A    between atoms: _130  and  _131
REMARK   60  A    between atoms: _130  and  _133
REMARK   61  A    between atoms: _134  and  _135
REMARK   62  A    between atoms: _138  and  _140
REMARK   63  A    between atoms: _140  and  _141
REMARK   64  A    between atoms: _140  and  _143
REMARK   65  A    between atoms: _143  and  _144
REMARK   66  A    between atoms: _144  and  _145
REMARK   67  A    between atoms: _150  and  _152
REMARK   68  A    between atoms: _152  and  _153
REMARK   69  A    between atoms: _152  and  _155
REMARK   70  A    between atoms: _155  and  _156
REMARK   71  A    between atoms: _159  and  _161
REMARK   72  A    between atoms: _161  and  _162
REMARK   73  A    between atoms: _161  and  _164
REMARK   74  A    between atoms: _164  and  _165
REMARK   75  A    between atoms: _168  and  _170
REMARK   76  A    between atoms: _170  and  _171
REMARK   77  A    between atoms: _170  and  _173
REMARK   78  A    between atoms: _173  and  _174
REMARK   79  A    between atoms: _174  and  _175
REMARK   80  A    between atoms: _175  and  _176
REMARK   81  A    between atoms: _185  and  _187
REMARK   82  A    between atoms: _187  and  _188
REMARK   83  A    between atoms: _187  and  _190
REMARK   84  A    between atoms: _190  and  _191
REMARK   85  A    between atoms: _194  and  _196
REMARK   86  A    between atoms: _196  and  _197
REMARK   87  A    between atoms: _196  and  _199
REMARK   88  A    between atoms: _199  and  _200
REMARK   89  A    between atoms: _200  and  _201
REMARK   90  A    between atoms: _201  and  _202
REMARK   91  A    between atoms: _211  and  _213
REMARK   92  A    between atoms: _213  and  _214
REMARK   93  A    between atoms: _213  and  _216
REMARK   94  A    between atoms: _216  and  _217
REMARK   95  A    between atoms: _220  and  _222
REMARK   96  A    between atoms: _222  and  _223
REMARK   97  A    between atoms: _225  and  _227
REMARK   98  A    between atoms: _227  and  _228
REMARK   99  A    between atoms: _227  and  _230
REMARK  100  A    between atoms: _230  and  _231
REMARK  101  A    between atoms: _231  and  _232
REMARK  102  A    between atoms: _235  and  _237
REMARK  103  A    between atoms: _237  and  _238
REMARK  104  A    between atoms: _237  and  _240
REMARK  105  A    between atoms: _240  and  _241
REMARK  106  A    between atoms: _244  and  _246
REMARK  107  A    between atoms: _246  and  _247
REMARK  108  A    between atoms: _250  and  _252
REMARK  109  A    between atoms: _252  and  _253
REMARK  110  A    between atoms: _252  and  _255
REMARK  111  A    between atoms: _255  and  _256
REMARK  112  A    between atoms: _261  and  _262
REMARK  113  A    between atoms: _261  and  _264
REMARK  114  A    between atoms: _264  and  _265
REMARK  115  A    between atoms: _267  and  _269
REMARK  116  A    between atoms: _269  and  _270
REMARK  117  A    between atoms: _273  and  _275
REMARK  118  A    between atoms: _275  and  _276
REMARK  119  A    between atoms: _275  and  _278
REMARK  120  A    between atoms: _278  and  _279
REMARK  121  A    between atoms: _282  and  _284
REMARK  122  A    between atoms: _284  and  _285
REMARK  123  A    between atoms: _284  and  _287
REMARK  124  A    between atoms: _287  and  _288
REMARK  125  A    between atoms: _291  and  _293
REMARK  126  A    between atoms: _293  and  _294
REMARK  127  A    between atoms: _293  and  _296
REMARK  128  A    between atoms: _296  and  _297
REMARK  129  A    between atoms: _297  and  _298
REMARK  130  A    between atoms: _298  and  _299
REMARK  131  A    between atoms: _308  and  _310
REMARK  132  A    between atoms: _310  and  _311
REMARK  133  A    between atoms: _310  and  _313
REMARK  134  A    between atoms: _316  and  _318
REMARK  135  A    between atoms: _318  and  _319
REMARK  136  A    between atoms: _318  and  _321
REMARK  137  A    between atoms: _321  and  _322
REMARK  138  A    between atoms: _322  and  _323
REMARK  139  A    between atoms: _323  and  _324
REMARK  140  A    between atoms: _333  and  _335
REMARK  141  A    between atoms: _335  and  _336
REMARK  142  A    between atoms: _338  and  _340
REMARK  143  A    between atoms: _340  and  _341
REMARK  144  A    between atoms: _340  and  _343
REMARK  145  A    between atoms: _343  and  _344
REMARK  146  A    between atoms: _350  and  _352
REMARK  147  A    between atoms: _352  and  _353
REMARK  148  A    between atoms: _353  and  _354
REMARK  149  A    between atoms: _353  and  _355
REMARK  150  A    between atoms: _354  and  MG_637
REMARK  151  A    between atoms: _355  and  _357
REMARK  152  A    between atoms: _357  and  _358
REMARK  153  A    between atoms: _357  and  _360
REMARK  154  A    between atoms: _360  and  _361
REMARK  155  A    between atoms: _361  and  _362
REMARK  156  A    between atoms: _362  and  _363
REMARK  157  A    between atoms: _372  and  _374
REMARK  158  A    between atoms: _374  and  _375
REMARK  159  A    between atoms: _374  and  _377
REMARK  160  A    between atoms: _377  and  _378
REMARK  161  A    between atoms: _378  and  _379
REMARK  162  A    between atoms: _384  and  _386
REMARK  163  A    between atoms: _386  and  _387
REMARK  164  A    between atoms: _386  and  _389
REMARK  165  A    between atoms: _389  and  _390
REMARK  166  A    between atoms: _390  and  _391
REMARK  167  A    between atoms: _391  and  _392
REMARK  168  A    between atoms: _392  and  _393
REMARK  169  A    between atoms: _397  and  _399
REMARK  170  A    between atoms: _399  and  _400
REMARK  171  A    between atoms: _399  and  _402
REMARK  172  A    between atoms: _402  and  _403
REMARK  173  A    between atoms: _403  and  _404
REMARK  174  A    between atoms: _409  and  _411
REMARK  175  A    between atoms: _411  and  _412
REMARK  176  A    between atoms: _411  and  _414
REMARK  177  A    between atoms: _414  and  _415
REMARK  178  A    between atoms: _418  and  _420
REMARK  179  A    between atoms: _420  and  _421
REMARK  180  A    between atoms: _420  and  _423
REMARK  181  A    between atoms: _423  and  _424
REMARK  182  A    between atoms: _424  and  _425
REMARK  183  A    between atoms: _428  and  _430
REMARK  184  A    between atoms: _430  and  _431
REMARK  185  A    between atoms: _430  and  _433
REMARK  186  A    between atoms: _434  and  _435
REMARK  187  A    between atoms: _435  and  _436
REMARK  188  A    between atoms: _445  and  _447
REMARK  189  A    between atoms: _447  and  _448
REMARK  190  A    between atoms: _447  and  _450
REMARK  191  A    between atoms: _450  and  _451
REMARK  192  A    between atoms: _454  and  _456
REMARK  193  A    between atoms: _456  and  _457
REMARK  194  A    between atoms: _456  and  _459
REMARK  195  A    between atoms: _459  and  _460
REMARK  196  A    between atoms: _460  and  _461
REMARK  197  A    between atoms: _464  and  _466
REMARK  198  A    between atoms: _466  and  _467
REMARK  199  A    between atoms: _466  and  _469
REMARK  200  A    between atoms: _469  and  _470
REMARK  201  A    between atoms: _476  and  _478
REMARK  202  A    between atoms: _478  and  _479
REMARK  203  A    between atoms: _478  and  _481
REMARK  204  A    between atoms: _481  and  _482
REMARK  205  A    between atoms: _485  and  _487
REMARK  206  A    between atoms: _487  and  _488
REMARK  207  A    between atoms: _487  and  _490
REMARK  208  A    between atoms: _490  and  _491
REMARK  209  A    between atoms: _491  and  _492
REMARK  210  A    between atoms: _497  and  _499
REMARK  211  A    between atoms: _499  and  _500
REMARK  212  A    between atoms: _499  and  _502
REMARK  213  A    between atoms: _502  and  _503
REMARK  214  A    between atoms: _503  and  _504
REMARK  215  A    between atoms: _504  and  _505
REMARK  216  A    between atoms: _505  and  _506
REMARK  217  A    between atoms: _510  and  _512
REMARK  218  A    between atoms: _512  and  _513
REMARK  219  A    between atoms: _512  and  _515
REMARK  220  A    between atoms: _515  and  _516
REMARK  221  A    between atoms: _519  and  _521
REMARK  222  A    between atoms: _521  and  _522
REMARK  223  A    between atoms: _521  and  _524
REMARK  224  A    between atoms: _524  and  _525
REMARK  225  A    between atoms: _525  and  _526
REMARK  226  A    between atoms: _526  and  _527
REMARK  227  A    between atoms: _527  and  _528
REMARK  228  A    between atoms: _532  and  _534
REMARK  229  A    between atoms: _534  and  _535
REMARK  230  A    between atoms: _534  and  _537
REMARK  231  A    between atoms: _537  and  _538
REMARK  232  A    between atoms: _538  and  _539
REMARK  233  A    between atoms: _539  and  _540
REMARK  234  A    between atoms: _549  and  _551
REMARK  235  A    between atoms: _551  and  _552
REMARK  236  A    between atoms: _551  and  _554
REMARK  237  A    between atoms: _554  and  _555
REMARK  238  A    between atoms: _558  and  _560
REMARK  239  A    between atoms: _560  and  _561
REMARK  240  A    between atoms: _563  and  _565
REMARK  241  A    between atoms: _565  and  _566
REMARK  242  A    between atoms: _565  and  _568
REMARK  243  A    between atoms: _568  and  _569
REMARK  244  A    between atoms: _569  and  _570
REMARK  245  A    between atoms: _573  and  _575
REMARK  246  A    between atoms: _575  and  _576
REMARK  247  A    between atoms: _575  and  _578
REMARK  248  A    between atoms: _578  and  _579
REMARK  249  A    between atoms: _584  and  _586
REMARK  250  A    between atoms: _586  and  _587
REMARK  251  A    between atoms: _589  and  _591
REMARK  252  A    between atoms: _591  and  _592
REMARK  253  A    between atoms: _591  and  _594
REMARK  254  A    between atoms: _594  and  _595
REMARK  255  A    between atoms: _598  and  _600
REMARK  256  A    between atoms: _600  and  _601
REMARK  257  A    between atoms: _603  and  _605
REMARK  258  A    between atoms: _605  and  _606
REMARK  259  A    between atoms: _605  and  _608
REMARK  260  A    between atoms: _608  and  _609
REMARK  261  A    between atoms: _609  and  _610
REMARK  262  A    between atoms: _610  and  _611
REMARK  263  A    between atoms: _611  and  _612
REMARK  264  A    between atoms: _616  and  _618
REMARK  265  A    between atoms: _618  and  _619
REMARK  266  A    between atoms: _618  and  _621
REMARK  267  A    between atoms: _621  and  _622
REMARK  268  A    between atoms: _625  and  _627
REMARK  269  A    between atoms: _627  and  _628
REMARK  270  A    between atoms: _627  and  _630
REMARK  271  A    between atoms: _630  and  _631
REMARK                            x       y       z     vdW  Elec       q    Type
REMARK                         _______ _______ _______ _____ _____    ______ ____
ROOT
ATOM      1  CA  THR A   1      51.817  -7.948  61.036  0.00  0.00    +0.160 C 
ENDROOT
BRANCH   1   2
ATOM      2  N   THR A   1      52.629  -7.634  59.832  0.00  0.00    -0.237 NA
ATOM      3  H   THR A   1      52.784  -6.630  59.610  0.00  0.00    +0.142 HD
ENDBRANCH   1   2
BRANCH   1   4
ATOM      4  CB  THR A   1      52.302  -7.237  62.298  0.00  0.00    +0.134 C 
ATOM      5  CG2 THR A   1      53.707  -7.646  62.690  0.00  0.00    +0.034 C 
BRANCH   4   6
ATOM      6  OG1 THR A   1      52.256  -5.837  62.106  0.00  0.00    -0.383 OA
ATOM      7  HG1 THR A   1      52.840  -5.590  61.345  0.00  0.00    +0.210 HD
ENDBRANCH   4   6
ENDBRANCH   1   4
BRANCH   1   8
ATOM      8  C   THR A   1      50.360  -7.736  60.699  0.00  0.00    +0.227 C 
ATOM      9  O   THR A   1      49.703  -8.695  60.244  0.00  0.00    -0.287 OA
ENDBRANCH   1   8
TORSDOF 4
REMARK  Name = ../refined-set-2016/2xbp/2xbp_pocket.pdb
REMARK  271 active torsions:
REMARK  status: ('A' for Active; 'I' for Inactive)
REMARK    1  A    between atoms: _1  and  _3
REMARK    2  A    between atoms: _3  and  _4
REMARK    3  A    between atoms: _3  and  _6
REMARK    4  A    between atoms: _6  and  _7
REMARK    5  A    between atoms: _7  and  _8
REMARK    6  A    between atoms: _8  and  _9
REMARK    7  A    between atoms: _9  and  _10
REMARK    8  A    between atoms: _14  and  _16
REMARK    9  A    between atoms: _16  and  _17
REMARK   10  A    between atoms: _16  and  _19
REMARK   11  A    between atoms: _19  and  _20
REMARK   12  A    between atoms: _20  and  _21
REMARK   13  A    between atoms: _21  and  _22
REMARK   14  A    between atoms: _22  and  _23
REMARK   15  A    between atoms: _27  and  _29
REMARK   16  A    between atoms: _29  and  _30
REMARK   17  A    between atoms: _29  and  _32
REMARK   18  A    between atoms: _32  and  _33
REMARK   19  A    between atoms: _36  and  _38
REMARK   20  A    between atoms: _38  and  _39
REMARK   21  A    between atoms: _38  and  _41
REMARK   22  A    between atoms: _41  and  _42
REMARK   23  A    between atoms: _45  and  _47
REMARK   24  A    between atoms: _47  and  _48
REMARK   25  A    between atoms: _47  and  _50
REMARK   26  A    between atoms: _53  and  _55
REMARK   27  A    between atoms: _55  and  _56
REMARK   28  A    between atoms: _58  and  _60
REMARK   29  A    between atoms: _60  and  _61
REMARK   30  A    between atoms: _60  and  _63
REMARK   31  A    between atoms: _64  and  _65
REMARK   32  A    between atoms: _67  and  _69
REMARK   33  A    between atoms: _69  and  _70
REMARK   34  A    between atoms: _69  and  _72
REMARK   35  A    between atoms: _72  and  _73
REMARK   36  A    between atoms: _76  and  _78
REMARK   37  A    between atoms: _78  and  _79
REMARK   38  A    between atoms: _78  and  _81
REMARK   39  A    between atoms: _84  and  _86
REMARK   40  A    between atoms: _86  and  _87
REMARK   41  A    between atoms: _86  and  _89
REMARK   42  A    between atoms: _89  and  _90
REMARK   43  A    between atoms: _93  and  _95
REMARK   44  A    between atoms: _95  and  _96
REMARK   45  A    between atoms: _95  and  _98
REMARK   46  A    between atoms: _98  and  _99
REMARK   47  A    between atoms: _99  and  _100
REMARK   48  A    between atoms: _103  and  _105
REMARK   49  A    between atoms: _105  and  _106
REMARK   50  A    between atoms: _105  and  _108
REMARK   51  A    between atoms: _108  and  _109
REMARK   52  A    between atoms: _112  and  _114
REMARK   53  A    between atoms: _114  and  _115
REMARK   54  A    between atoms: _114  and  _117
REMARK   55  A    between atoms: _120  and  _122
REMARK   56  A    between atoms: _122  and  _123
REMARK   57  A    between atoms: _122  and  _125
REMARK   58  A    between atoms: _128  and  _130
REMARK   59  A    between atoms: _130  and  _131
REMARK   60  A    between atoms: _130  and  _133
REMARK   61  A    between atoms: _134  and  _135
REMARK   62  A    between atoms: _138  and  _140
REMARK   63  A    between atoms: _140  and  _141
REMARK   64  A    between atoms: _140  and  _143
REMARK   65  A    between atoms: _143  and  _144
REMARK   66  A    between atoms: _144  and  _145
REMARK   67  A    between atoms: _150  and  _152
REMARK   68  A    between atoms: _152  and  _153
REMARK   69  A    between atoms: _152  and  _155
REMARK   70  A    between atoms: _155  and  _156
REMARK   71  A    between atoms: _159  and  _161
REMARK   72  A    between atoms: _161  and  _162
REMARK   73  A    between atoms: _161  and  _164
REMARK   74  A    between atoms: _164  and  _165
REMARK   75  A    between atoms: _168  and  _170
REMARK   76  A    between atoms: _170  and  _171
REMARK   77  A    between atoms: _170  and  _173
REMARK   78  A    between atoms: _173  and  _174
REMARK   79  A    between atoms: _174  and  _175
REMARK   80  A    between atoms: _175  and  _176
REMARK   81  A    between atoms: _185  and  _187
REMARK   82  A    between atoms: _187  and  _188
REMARK   83  A    between atoms: _187  and  _190
REMARK   84  A    between atoms: _190  and  _191
REMARK   85  A    between atoms: _194  and  _196
REMARK   86  A    between atoms: _196  and  _197
REMARK   87  A    between atoms: _196  and  _199
REMARK   88  A    between atoms: _199  and  _200
REMARK   89  A    between atoms: _200  and  _201
REMARK   90  A    between atoms: _201  and  _202
REMARK   91  A    between atoms: _211  and  _213
REMARK   92  A    between atoms: _213  and  _214
REMARK   93  A    between atoms: _213  and  _216
REMARK   94  A    between atoms: _216  and  _217
REMARK   95  A    between atoms: _220  and  _222
REMARK   96  A    between atoms: _222  and  _223
REMARK   97  A    between atoms: _225  and  _227
REMARK   98  A    between atoms: _227  and  _228
REMARK   99  A    between atoms: _227  and  _230
REMARK  100  A    between atoms: _230  and  _231
REMARK  101  A    between atoms: _231  and  _232
REMARK  102  A    between atoms: _235  and  _237
REMARK  103  A    between atoms: _237  and  _238
REMARK  104  A    between atoms: _237  and  _240
REMARK  105  A    between atoms: _240  and  _241
REMARK  106  A    between atoms: _244  and  _246
REMARK  107  A    between atoms: _246  and  _247
REMARK  108  A    between atoms: _250  and  _252
REMARK  109  A    between atoms: _252  and  _253
REMARK  110  A    between atoms: _252  and  _255
REMARK  111  A    between atoms: _255  and  _256
REMARK  112  A    between atoms: _261  and  _262
REMARK  113  A    between atoms: _261  and  _264
REMARK  114  A    between atoms: _264  and  _265
REMARK  115  A    between atoms: _267  and  _269
REMARK  116  A    between atoms: _269  and  _270
REMARK  117  A    between atoms: _273  and  _275
REMARK  118  A    between atoms: _275  and  _276
REMARK  119  A    between atoms: _275  and  _278
REMARK  120  A    between atoms: _278  and  _279
REMARK  121  A    between atoms: _282  and  _284
REMARK  122  A    between atoms: _284  and  _285
REMARK  123  A    between atoms: _284  and  _287
REMARK  124  A    between atoms: _287  and  _288
REMARK  125  A    between atoms: _291  and  _293
REMARK  126  A    between atoms: _293  and  _294
REMARK  127  A    between atoms: _293  and  _296
REMARK  128  A    between atoms: _296  and  _297
REMARK  129  A    between atoms: _297  and  _298
REMARK  130  A    between atoms: _298  and  _299
REMARK  131  A    between atoms: _308  and  _310
REMARK  132  A    between atoms: _310  and  _311
REMARK  133  A    between atoms: _310  and  _313
REMARK  134  A    between atoms: _316  and  _318
REMARK  135  A    between atoms: _318  and  _319
REMARK  136  A    between atoms: _318  and  _321
REMARK  137  A    between atoms: _321  and  _322
REMARK  138  A    between atoms: _322  and  _323
REMARK  139  A    between atoms: _323  and  _324
REMARK  140  A    between atoms: _333  and  _335
REMARK  141  A    between atoms: _335  and  _336
REMARK  142  A    between atoms: _338  and  _340
REMARK  143  A    between atoms: _340  and  _341
REMARK  144  A    between atoms: _340  and  _343
REMARK  145  A    between atoms: _343  and  _344
REMARK  146  A    between atoms: _350  and  _352
REMARK  147  A    between atoms: _352  and  _353
REMARK  148  A    between atoms: _353  and  _354
REMARK  149  A    between atoms: _353  and  _355
REMARK  150  A    between atoms: _354  and  MG_637
REMARK  151  A    between atoms: _355  and  _357
REMARK  152  A    between atoms: _357  and  _358
REMARK  153  A    between atoms: _357  and  _360
REMARK  154  A    between atoms: _360  and  _361
REMARK  155  A    between atoms: _361  and  _362
REMARK  156  A    between atoms: _362  and  _363
REMARK  157  A    between atoms: _372  and  _374
REMARK  158  A    between atoms: _374  and  _375
REMARK  159  A    between atoms: _374  and  _377
REMARK  160  A    between atoms: _377  and  _378
REMARK  161  A    between atoms: _378  and  _379
REMARK  162  A    between atoms: _384  and  _386
REMARK  163  A    between atoms: _386  and  _387
REMARK  164  A    between atoms: _386  and  _389
REMARK  165  A    between atoms: _389  and  _390
REMARK  166  A    between atoms: _390  and  _391
REMARK  167  A    between atoms: _391  and  _392
REMARK  168  A    between atoms: _392  and  _393
REMARK  169  A    between atoms: _397  and  _399
REMARK  170  A    between atoms: _399  and  _400
REMARK  171  A    between atoms: _399  and  _402
REMARK  172  A    between atoms: _402  and  _403
REMARK  173  A    between atoms: _403  and  _404
REMARK  174  A    between atoms: _409  and  _411
REMARK  175  A    between atoms: _411  and  _412
REMARK  176  A    between atoms: _411  and  _414
REMARK  177  A    between atoms: _414  and  _415
REMARK  178  A    between atoms: _418  and  _420
REMARK  179  A    between atoms: _420  and  _421
REMARK  180  A    between atoms: _420  and  _423
REMARK  181  A    between atoms: _423  and  _424
REMARK  182  A    between atoms: _424  and  _425
REMARK  183  A    between atoms: _428  and  _430
REMARK  184  A    between atoms: _430  and  _431
REMARK  185  A    between atoms: _430  and  _433
REMARK  186  A    between atoms: _434  and  _435
REMARK  187  A    between atoms: _435  and  _436
REMARK  188  A    between atoms: _445  and  _447
REMARK  189  A    between atoms: _447  and  _448
REMARK  190  A    between atoms: _447  and  _450
REMARK  191  A    between atoms: _450  and  _451
REMARK  192  A    between atoms: _454  and  _456
REMARK  193  A    between atoms: _456  and  _457
REMARK  194  A    between atoms: _456  and  _459
REMARK  195  A    between atoms: _459  and  _460
REMARK  196  A    between atoms: _460  and  _461
REMARK  197  A    between atoms: _464  and  _466
REMARK  198  A    between atoms: _466  and  _467
REMARK  199  A    between atoms: _466  and  _469
REMARK  200  A    between atoms: _469  and  _470
REMARK  201  A    between atoms: _476  and  _478
REMARK  202  A    between atoms: _478  and  _479
REMARK  203  A    between atoms: _478  and  _481
REMARK  204  A    between atoms: _481  and  _482
REMARK  205  A    between atoms: _485  and  _487
REMARK  206  A    between atoms: _487  and  _488
REMARK  207  A    between atoms: _487  and  _490
REMARK  208  A    between atoms: _490  and  _491
REMARK  209  A    between atoms: _491  and  _492
REMARK  210  A    between atoms: _497  and  _499
REMARK  211  A    between atoms: _499  and  _500
REMARK  212  A    between atoms: _499  and  _502
REMARK  213  A    between atoms: _502  and  _503
REMARK  214  A    between atoms: _503  and  _504
REMARK  215  A    between atoms: _504  and  _505
REMARK  216  A    between atoms: _505  and  _506
REMARK  217  A    between atoms: _510  and  _512
REMARK  218  A    between atoms: _512  and  _513
REMARK  219  A    between atoms: _512  and  _515
REMARK  220  A    between atoms: _515  and  _516
REMARK  221  A    between atoms: _519  and  _521
REMARK  222  A    between atoms: _521  and  _522
REMARK  223  A    between atoms: _521  and  _524
REMARK  224  A    between atoms: _524  and  _525
REMARK  225  A    between atoms: _525  and  _526
REMARK  226  A    between atoms: _526  and  _527
REMARK  227  A    between atoms: _527  and  _528
REMARK  228  A    between atoms: _532  and  _534
REMARK  229  A    between atoms: _534  and  _535
REMARK  230  A    between atoms: _534  and  _537
REMARK  231  A    between atoms: _537  and  _538
REMARK  232  A    between atoms: _538  and  _539
REMARK  233  A    between atoms: _539  and  _540
REMARK  234  A    between atoms: _549  and  _551
REMARK  235  A    between atoms: _551  and  _552
REMARK  236  A    between atoms: _551  and  _554
REMARK  237  A    between atoms: _554  and  _555
REMARK  238  A    between atoms: _558  and  _560
REMARK  239  A    between atoms: _560  and  _561
REMARK  240  A    between atoms: _563  and  _565
REMARK  241  A    between atoms: _565  and  _566
REMARK  242  A    between atoms: _565  and  _568
REMARK  243  A    between atoms: _568  and  _569
REMARK  244  A    between atoms: _569  and  _570
REMARK  245  A    between atoms: _573  and  _575
REMARK  246  A    between atoms: _575  and  _576
REMARK  247  A    between atoms: _575  and  _578
REMARK  248  A    between atoms: _578  and  _579
REMARK  249  A    between atoms: _584  and  _586
REMARK  250  A    between atoms: _586  and  _587
REMARK  251  A    between atoms: _589  and  _591
REMARK  252  A    between atoms: _591  and  _592
REMARK  253  A    between atoms: _591  and  _594
REMARK  254  A    between atoms: _594  and  _595
REMARK  255  A    between atoms: _598  and  _600
REMARK  256  A    between atoms: _600  and  _601
REMARK  257  A    between atoms: _603  and  _605
REMARK  258  A    between atoms: _605  and  _606
REMARK  259  A    between atoms: _605  and  _608
REMARK  260  A    between atoms: _608  and  _609
REMARK  261  A    between atoms: _609  and  _610
REMARK  262  A    between atoms: _610  and  _611
REMARK  263  A    between atoms: _611  and  _612
REMARK  264  A    between atoms: _616  and  _618
REMARK  265  A    between atoms: _618  and  _619
REMARK  266  A    between atoms: _618  and  _621
REMARK  267  A    between atoms: _621  and  _622
REMARK  268  A    between atoms: _625  and  _627
REMARK  269  A    between atoms: _627  and  _628
REMARK  270  A    between atoms: _627  and  _630
REMARK  271  A    between atoms: _630  and  _631
REMARK                            x       y       z     vdW  Elec       q    Type
REMARK                         _______ _______ _______ _____ _____    ______ ____
ROOT
ATOM      1  CA  GLN A   4      45.612  -8.108  48.791  0.00  0.00    +0.149 C 
ENDROOT
BRANCH   1   2
ATOM      2  C   GLN A   4      45.242  -9.572  48.864  0.00  0.00    +0.241 C 
ATOM      3  O   GLN A   4      46.173 -10.439  48.919  0.00  0.00    -0.273 OA
ATOM      4  N   LYS A   5      43.968  -9.909  48.798  0.00  0.00    -0.297 N 
ATOM      5  H   LYS A   5      43.264  -9.144  48.787  0.00  0.00    +0.150 HD
BRANCH   4   6
ATOM      6  CA  LYS A   5      43.482 -11.280  48.740  0.00  0.00    +0.149 C 
BRANCH   6   7
ATOM      7  C   LYS A   5      42.350 -11.310  47.737  0.00  0.00    +0.241 C 
ATOM      8  N   LEU A   6      41.853 -12.503  47.404  0.00  0.00    -0.297 N 
ATOM      9  H   LEU A   6      42.352 -13.361  47.714  0.00  0.00    +0.150 HD
ATOM     10  O   LYS A   5      41.877 -10.264  47.277  0.00  0.00    -0.273 OA
BRANCH   8  11
ATOM     11  CA  LEU A   6      40.634 -12.641  46.620  0.00  0.00    +0.149 C 
BRANCH  11  12
ATOM     12  C   LEU A   6      39.610 -13.369  47.406  0.00  0.00    +0.241 C 
ATOM     13  O   LEU A   6      39.918 -14.339  48.116  0.00  0.00    -0.273 OA
ATOM     14  N   LYS A   7      38.347 -12.974  47.267  0.00  0.00    -0.298 N 
ATOM     15  H   LYS A   7      38.172 -12.127  46.689  0.00  0.00    +0.150 HD
BRANCH  14  16
ATOM     16  CA  LYS A   7      37.200 -13.626  47.853  0.00  0.00    +0.137 C 
BRANCH  16  17
ATOM     17  C   LYS A   7      36.409 -14.371  46.800  0.00  0.00    +0.227 C 
ATOM     18  O   LYS A   7      35.879 -13.751  45.882  0.00  0.00    -0.286 OA
ENDBRANCH  16  17
BRANCH  16  19
ATOM     19  CB  LYS A   7      36.316 -12.602  48.545  0.00  0.00    +0.028 C 
BRANCH  19  20
ATOM     20  CG  LYS A   7      35.089 -13.211  49.201  0.00  0.00    -0.000 C 
BRANCH  20  21
ATOM     21  CD  LYS A   7      34.201 -12.130  49.883  0.00  0.00    -0.024 C 
BRANCH  21  22
ATOM     22  CE  LYS A   7      33.056 -12.815  50.618  0.00  0.00    -0.086 C 
BRANCH  22  23
ATOM     23  NZ  LYS A   7      32.228 -11.829  51.295  0.00  0.00    +0.380 N 
ATOM     24  HZ1 LYS A   7      32.807 -11.304  51.981  0.00  0.00    -0.089 HD
ATOM     25  HZ2 LYS A   7      31.452 -12.312  51.791  0.00  0.00    -0.089 HD
ATOM     26  HZ3 LYS A   7      31.835 -11.168  50.594  0.00  0.00    -0.089 HD
ENDBRANCH  22  23
ENDBRANCH  21  22
ENDBRANCH  20  21
ENDBRANCH  19  20
ENDBRANCH  16  19
ENDBRANCH  14  16
ENDBRANCH  11  12
BRANCH  11  27
ATOM     27  CB  LEU A   6      40.905 -13.411  45.297  0.00  0.00    +0.029 C 
BRANCH  27  28
ATOM     28  CG  LEU A   6      41.826 -12.723  44.299  0.00  0.00    +0.002 C 
ATOM     29  CD2 LEU A   6      41.255 -11.349  43.855  0.00  0.00    +0.000 C 
ATOM     30  CD1 LEU A   6      42.047 -13.625  43.096  0.00  0.00    +0.000 C 
ENDBRANCH  27  28
ENDBRANCH  11  27
ENDBRANCH   8  11
ENDBRANCH   6   7
BRANCH   6  31
ATOM     31  CB  LYS A   5      43.058 -11.775  50.111  0.00  0.00    +0.029 C 
BRANCH  31  32
ATOM     32  CG  LYS A   5      44.100 -11.756  51.216  0.00  0.00    +0.000 C 
BRANCH  32  33
ATOM     33  CD  LYS A   5      45.242 -12.793  51.073  0.00  0.00    -0.024 C 
BRANCH  33  34
ATOM     34  CE  LYS A   5      46.247 -12.607  52.180  0.00  0.00    -0.086 C 
BRANCH  34  35
ATOM     35  NZ  LYS A   5      47.419 -13.569  52.092  0.00  0.00    +0.380 N 
ATOM     36  HZ1 LYS A   5      48.073 -13.390  52.880  0.00  0.00    -0.089 HD
ATOM     37  HZ2 LYS A   5      47.068 -14.547  52.146  0.00  0.00    -0.089 HD
ATOM     38  HZ3 LYS A   5      47.915 -13.427  51.189  0.00  0.00    -0.089 HD
ENDBRANCH  34  35
ENDBRANCH  33  34
ENDBRANCH  32  33
ENDBRANCH  31  32
ENDBRANCH   6  31
ENDBRANCH   4   6
ENDBRANCH   1   2
BRANCH   1  41
ATOM     39  C   LEU A   3      46.327  -7.803  51.072  0.00  0.00    +0.241 C 
ATOM     40  O   LEU A   3      45.215  -8.139  51.493  0.00  0.00    -0.273 OA
ATOM     41  N   GLN A   4      46.601  -7.744  49.785  0.00  0.00    -0.297 N 
ATOM     42  H   GLN A   4      47.544  -7.431  49.477  0.00  0.00    +0.150 HD
BRANCH  39  43
ATOM     43  CA  LEU A   3      47.449  -7.488  52.022  0.00  0.00    +0.149 C 
BRANCH  43  45
ATOM     44  C   PHE A   2      47.088  -5.649  53.613  0.00  0.00    +0.241 C 
ATOM     45  N   LEU A   3      46.895  -6.879  53.249  0.00  0.00    -0.297 N 
ATOM     46  H   LEU A   3      46.309  -7.479  53.864  0.00  0.00    +0.150 HD
ATOM     47  O   PHE A   2      47.852  -4.859  53.010  0.00  0.00    -0.273 OA
BRANCH  44  48
ATOM     48  CA  PHE A   2      46.346  -5.161  54.841  0.00  0.00    +0.153 C 
BRANCH  48  51
ATOM     49  C   GLU A   1      48.090  -5.113  56.473  0.00  0.00    +0.238 C 
ATOM     50  O   GLU A   1      48.187  -6.384  56.396  0.00  0.00    -0.274 OA
ATOM     51  N   PHE A   2      47.222  -4.479  55.754  0.00  0.00    -0.297 N 
ATOM     52  H   PHE A   2      47.156  -3.445  55.839  0.00  0.00    +0.150 HD
BRANCH  49  53
ATOM     53  CA  GLU A   1      49.015  -4.359  57.302  0.00  0.00    +0.145 C 
BRANCH  53  54
ATOM     54  N   GLU A   1      49.289  -5.099  58.582  0.00  0.00    -0.238 NA
ATOM     55  H   GLU A   1      50.258  -5.371  58.843  0.00  0.00    +0.142 HD
ENDBRANCH  53  54
BRANCH  53  56
ATOM     56  CB  GLU A   1      50.353  -4.159  56.600  0.00  0.00    +0.038 C 
BRANCH  56  57
ATOM     57  CG  GLU A   1      51.312  -3.291  57.340  0.00  0.00    +0.116 C 
BRANCH  57  58
ATOM     58  CD  GLU A   1      52.220  -3.971  58.340  0.00  0.00    +0.365 C 
ATOM     59  OE2 GLU A   1      53.178  -3.272  58.900  0.00  0.00    -0.246 OA
ATOM     60  OE1 GLU A   1      52.094  -5.172  58.647  0.00  0.00    -0.246 OA
ENDBRANCH  57  58
ENDBRANCH  56  57
ENDBRANCH  53  56
ENDBRANCH  49  53
ENDBRANCH  48  51
BRANCH  48  61
ATOM     61  CB  PHE A   2      45.174  -4.240  54.449  0.00  0.00    +0.055 C 
BRANCH  61  62
ATOM     62  CG  PHE A   2      44.163  -4.010  55.537  0.00  0.00    -0.020 A 
ATOM     63  CD2 PHE A   2      43.531  -5.052  56.142  0.00  0.00    -0.004 A 
ATOM     64  CE2 PHE A   2      42.587  -4.809  57.067  0.00  0.00    -0.000 A 
ATOM     65  CZ  PHE A   2      42.294  -3.521  57.421  0.00  0.00    -0.000 A 
ATOM     66  CE1 PHE A   2      42.866  -2.538  56.786  0.00  0.00    -0.000 A 
ATOM     67  CD1 PHE A   2      43.800  -2.778  55.846  0.00  0.00    -0.004 A 
ENDBRANCH  61  62
ENDBRANCH  48  61
ENDBRANCH  44  48
ENDBRANCH  43  45
BRANCH  43  68
ATOM     68  CB  LEU A   3      48.214  -8.748  52.438  0.00  0.00    +0.029 C 
BRANCH  68  69
ATOM     69  CG  LEU A   3      49.443  -8.530  53.294  0.00  0.00    +0.002 C 
ATOM     70  CD2 LEU A   3      49.984  -9.841  53.818  0.00  0.00    +0.000 C 
ATOM     71  CD1 LEU A   3      50.517  -7.711  52.544  0.00  0.00    +0.000 C 
ENDBRANCH  68  69
ENDBRANCH  43  68
ENDBRANCH  39  43
ENDBRANCH   1  41
BRANCH   1  72
ATOM     72  CB  GLN A   4      46.113  -7.772  47.396  0.00  0.00    +0.039 C 
BRANCH  72  73
ATOM     73  CG  GLN A   4      46.361  -6.293  47.196  0.00  0.00    +0.087 C 
BRANCH  73  74
ATOM     74  CD  GLN A   4      45.081  -5.444  47.178  0.00  0.00    +0.219 C 
ATOM     75  NE2 GLN A   4      45.226  -4.153  47.511  0.00  0.00    -0.329 N 
ATOM     76 HE21 GLN A   4      46.149  -3.800  47.837  0.00  0.00    +0.145 HD
ATOM     77 HE22 GLN A   4      44.416  -3.504  47.444  0.00  0.00    +0.145 HD
ATOM     78  OE1 GLN A   4      43.970  -5.899  46.779  0.00  0.00    -0.275 OA
ENDBRANCH  73  74
ENDBRANCH  72  73
ENDBRANCH   1  72
TORSDOF 36
REMARK  Name = ../refined-set-2016/2xbp/2xbp_pocket.pdb
REMARK  271 active torsions:
REMARK  status: ('A' for Active; 'I' for Inactive)
REMARK    1  A    between atoms: _1  and  _3
REMARK    2  A    between atoms: _3  and  _4
REMARK    3  A    between atoms: _3  and  _6
REMARK    4  A    between atoms: _6  and  _7
REMARK    5  A    between atoms: _7  and  _8
REMARK    6  A    between atoms: _8  and  _9
REMARK    7  A    between atoms: _9  and  _10
REMARK    8  A    between atoms: _14  and  _16
REMARK    9  A    between atoms: _16  and  _17
REMARK   10  A    between atoms: _16  and  _19
REMARK   11  A    between atoms: _19  and  _20
REMARK   12  A    between atoms: _20  and  _21
REMARK   13  A    between atoms: _21  and  _22
REMARK   14  A    between atoms: _22  and  _23
REMARK   15  A    between atoms: _27  and  _29
REMARK   16  A    between atoms: _29  and  _30
REMARK   17  A    between atoms: _29  and  _32
REMARK   18  A    between atoms: _32  and  _33
REMARK   19  A    between atoms: _36  and  _38
REMARK   20  A    between atoms: _38  and  _39
REMARK   21  A    between atoms: _38  and  _41
REMARK   22  A    between atoms: _41  and  _42
REMARK   23  A    between atoms: _45  and  _47
REMARK   24  A    between atoms: _47  and  _48
REMARK   25  A    between atoms: _47  and  _50
REMARK   26  A    between atoms: _53  and  _55
REMARK   27  A    between atoms: _55  and  _56
REMARK   28  A    between atoms: _58  and  _60
REMARK   29  A    between atoms: _60  and  _61
REMARK   30  A    between atoms: _60  and  _63
REMARK   31  A    between atoms: _64  and  _65
REMARK   32  A    between atoms: _67  and  _69
REMARK   33  A    between atoms: _69  and  _70
REMARK   34  A    between atoms: _69  and  _72
REMARK   35  A    between atoms: _72  and  _73
REMARK   36  A    between atoms: _76  and  _78
REMARK   37  A    between atoms: _78  and  _79
REMARK   38  A    between atoms: _78  and  _81
REMARK   39  A    between atoms: _84  and  _86
REMARK   40  A    between atoms: _86  and  _87
REMARK   41  A    between atoms: _86  and  _89
REMARK   42  A    between atoms: _89  and  _90
REMARK   43  A    between atoms: _93  and  _95
REMARK   44  A    between atoms: _95  and  _96
REMARK   45  A    between atoms: _95  and  _98
REMARK   46  A    between atoms: _98  and  _99
REMARK   47  A    between atoms: _99  and  _100
REMARK   48  A    between atoms: _103  and  _105
REMARK   49  A    between atoms: _105  and  _106
REMARK   50  A    between atoms: _105  and  _108
REMARK   51  A    between atoms: _108  and  _109
REMARK   52  A    between atoms: _112  and  _114
REMARK   53  A    between atoms: _114  and  _115
REMARK   54  A    between atoms: _114  and  _117
REMARK   55  A    between atoms: _120  and  _122
REMARK   56  A    between atoms: _122  and  _123
REMARK   57  A    between atoms: _122  and  _125
REMARK   58  A    between atoms: _128  and  _130
REMARK   59  A    between atoms: _130  and  _131
REMARK   60  A    between atoms: _130  and  _133
REMARK   61  A    between atoms: _134  and  _135
REMARK   62  A    between atoms: _138  and  _140
REMARK   63  A    between atoms: _140  and  _141
REMARK   64  A    between atoms: _140  and  _143
REMARK   65  A    between atoms: _143  and  _144
REMARK   66  A    between atoms: _144  and  _145
REMARK   67  A    between atoms: _150  and  _152
REMARK   68  A    between atoms: _152  and  _153
REMARK   69  A    between atoms: _152  and  _155
REMARK   70  A    between atoms: _155  and  _156
REMARK   71  A    between atoms: _159  and  _161
REMARK   72  A    between atoms: _161  and  _162
REMARK   73  A    between atoms: _161  and  _164
REMARK   74  A    between atoms: _164  and  _165
REMARK   75  A    between atoms: _168  and  _170
REMARK   76  A    between atoms: _170  and  _171
REMARK   77  A    between atoms: _170  and  _173
REMARK   78  A    between atoms: _173  and  _174
REMARK   79  A    between atoms: _174  and  _175
REMARK   80  A    between atoms: _175  and  _176
REMARK   81  A    between atoms: _185  and  _187
REMARK   82  A    between atoms: _187  and  _188
REMARK   83  A    between atoms: _187  and  _190
REMARK   84  A    between atoms: _190  and  _191
REMARK   85  A    between atoms: _194  and  _196
REMARK   86  A    between atoms: _196  and  _197
REMARK   87  A    between atoms: _196  and  _199
REMARK   88  A    between atoms: _199  and  _200
REMARK   89  A    between atoms: _200  and  _201
REMARK   90  A    between atoms: _201  and  _202
REMARK   91  A    between atoms: _211  and  _213
REMARK   92  A    between atoms: _213  and  _214
REMARK   93  A    between atoms: _213  and  _216
REMARK   94  A    between atoms: _216  and  _217
REMARK   95  A    between atoms: _220  and  _222
REMARK   96  A    between atoms: _222  and  _223
REMARK   97  A    between atoms: _225  and  _227
REMARK   98  A    between atoms: _227  and  _228
REMARK   99  A    between atoms: _227  and  _230
REMARK  100  A    between atoms: _230  and  _231
REMARK  101  A    between atoms: _231  and  _232
REMARK  102  A    between atoms: _235  and  _237
REMARK  103  A    between atoms: _237  and  _238
REMARK  104  A    between atoms: _237  and  _240
REMARK  105  A    between atoms: _240  and  _241
REMARK  106  A    between atoms: _244  and  _246
REMARK  107  A    between atoms: _246  and  _247
REMARK  108  A    between atoms: _250  and  _252
REMARK  109  A    between atoms: _252  and  _253
REMARK  110  A    between atoms: _252  and  _255
REMARK  111  A    between atoms: _255  and  _256
REMARK  112  A    between atoms: _261  and  _262
REMARK  113  A    between atoms: _261  and  _264
REMARK  114  A    between atoms: _264  and  _265
REMARK  115  A    between atoms: _267  and  _269
REMARK  116  A    between atoms: _269  and  _270
REMARK  117  A    between atoms: _273  and  _275
REMARK  118  A    between atoms: _275  and  _276
REMARK  119  A    between atoms: _275  and  _278
REMARK  120  A    between atoms: _278  and  _279
REMARK  121  A    between atoms: _282  and  _284
REMARK  122  A    between atoms: _284  and  _285
REMARK  123  A    between atoms: _284  and  _287
REMARK  124  A    between atoms: _287  and  _288
REMARK  125  A    between atoms: _291  and  _293
REMARK  126  A    between atoms: _293  and  _294
REMARK  127  A    between atoms: _293  and  _296
REMARK  128  A    between atoms: _296  and  _297
REMARK  129  A    between atoms: _297  and  _298
REMARK  130  A    between atoms: _298  and  _299
REMARK  131  A    between atoms: _308  and  _310
REMARK  132  A    between atoms: _310  and  _311
REMARK  133  A    between atoms: _310  and  _313
REMARK  134  A    between atoms: _316  and  _318
REMARK  135  A    between atoms: _318  and  _319
REMARK  136  A    between atoms: _318  and  _321
REMARK  137  A    between atoms: _321  and  _322
REMARK  138  A    between atoms: _322  and  _323
REMARK  139  A    between atoms: _323  and  _324
REMARK  140  A    between atoms: _333  and  _335
REMARK  141  A    between atoms: _335  and  _336
REMARK  142  A    between atoms: _338  and  _340
REMARK  143  A    between atoms: _340  and  _341
REMARK  144  A    between atoms: _340  and  _343
REMARK  145  A    between atoms: _343  and  _344
REMARK  146  A    between atoms: _350  and  _352
REMARK  147  A    between atoms: _352  and  _353
REMARK  148  A    between atoms: _353  and  _354
REMARK  149  A    between atoms: _353  and  _355
REMARK  150  A    between atoms: _354  and  MG_637
REMARK  151  A    between atoms: _355  and  _357
REMARK  152  A    between atoms: _357  and  _358
REMARK  153  A    between atoms: _357  and  _360
REMARK  154  A    between atoms: _360  and  _361
REMARK  155  A    between atoms: _361  and  _362
REMARK  156  A    between atoms: _362  and  _363
REMARK  157  A    between atoms: _372  and  _374
REMARK  158  A    between atoms: _374  and  _375
REMARK  159  A    between atoms: _374  and  _377
REMARK  160  A    between atoms: _377  and  _378
REMARK  161  A    between atoms: _378  and  _379
REMARK  162  A    between atoms: _384  and  _386
REMARK  163  A    between atoms: _386  and  _387
REMARK  164  A    between atoms: _386  and  _389
REMARK  165  A    between atoms: _389  and  _390
REMARK  166  A    between atoms: _390  and  _391
REMARK  167  A    between atoms: _391  and  _392
REMARK  168  A    between atoms: _392  and  _393
REMARK  169  A    between atoms: _397  and  _399
REMARK  170  A    between atoms: _399  and  _400
REMARK  171  A    between atoms: _399  and  _402
REMARK  172  A    between atoms: _402  and  _403
REMARK  173  A    between atoms: _403  and  _404
REMARK  174  A    between atoms: _409  and  _411
REMARK  175  A    between atoms: _411  and  _412
REMARK  176  A    between atoms: _411  and  _414
REMARK  177  A    between atoms: _414  and  _415
REMARK  178  A    between atoms: _418  and  _420
REMARK  179  A    between atoms: _420  and  _421
REMARK  180  A    between atoms: _420  and  _423
REMARK  181  A    between atoms: _423  and  _424
REMARK  182  A    between atoms: _424  and  _425
REMARK  183  A    between atoms: _428  and  _430
REMARK  184  A    between atoms: _430  and  _431
REMARK  185  A    between atoms: _430  and  _433
REMARK  186  A    between atoms: _434  and  _435
REMARK  187  A    between atoms: _435  and  _436
REMARK  188  A    between atoms: _445  and  _447
REMARK  189  A    between atoms: _447  and  _448
REMARK  190  A    between atoms: _447  and  _450
REMARK  191  A    between atoms: _450  and  _451
REMARK  192  A    between atoms: _454  and  _456
REMARK  193  A    between atoms: _456  and  _457
REMARK  194  A    between atoms: _456  and  _459
REMARK  195  A    between atoms: _459  and  _460
REMARK  196  A    between atoms: _460  and  _461
REMARK  197  A    between atoms: _464  and  _466
REMARK  198  A    between atoms: _466  and  _467
REMARK  199  A    between atoms: _466  and  _469
REMARK  200  A    between atoms: _469  and  _470
REMARK  201  A    between atoms: _476  and  _478
REMARK  202  A    between atoms: _478  and  _479
REMARK  203  A    between atoms: _478  and  _481
REMARK  204  A    between atoms: _481  and  _482
REMARK  205  A    between atoms: _485  and  _487
REMARK  206  A    between atoms: _487  and  _488
REMARK  207  A    between atoms: _487  and  _490
REMARK  208  A    between atoms: _490  and  _491
REMARK  209  A    between atoms: _491  and  _492
REMARK  210  A    between atoms: _497  and  _499
REMARK  211  A    between atoms: _499  and  _500
REMARK  212  A    between atoms: _499  and  _502
REMARK  213  A    between atoms: _502  and  _503
REMARK  214  A    between atoms: _503  and  _504
REMARK  215  A    between atoms: _504  and  _505
REMARK  216  A    between atoms: _505  and  _506
REMARK  217  A    between atoms: _510  and  _512
REMARK  218  A    between atoms: _512  and  _513
REMARK  219  A    between atoms: _512  and  _515
REMARK  220  A    between atoms: _515  and  _516
REMARK  221  A    between atoms: _519  and  _521
REMARK  222  A    between atoms: _521  and  _522
REMARK  223  A    between atoms: _521  and  _524
REMARK  224  A    between atoms: _524  and  _525
REMARK  225  A    between atoms: _525  and  _526
REMARK  226  A    between atoms: _526  and  _527
REMARK  227  A    between atoms: _527  and  _528
REMARK  228  A    between atoms: _532  and  _534
REMARK  229  A    between atoms: _534  and  _535
REMARK  230  A    between atoms: _534  and  _537
REMARK  231  A    between atoms: _537  and  _538
REMARK  232  A    between atoms: _538  and  _539
REMARK  233  A    between atoms: _539  and  _540
REMARK  234  A    between atoms: _549  and  _551
REMARK  235  A    between atoms: _551  and  _552
REMARK  236  A    between atoms: _551  and  _554
REMARK  237  A    between atoms: _554  and  _555
REMARK  238  A    between atoms: _558  and  _560
REMARK  239  A    between atoms: _560  and  _561
REMARK  240  A    between atoms: _563  and  _565
REMARK  241  A    between atoms: _565  and  _566
REMARK  242  A    between atoms: _565  and  _568
REMARK  243  A    between atoms: _568  and  _569
REMARK  244  A    between atoms: _569  and  _570
REMARK  245  A    between atoms: _573  and  _575
REMARK  246  A    between atoms: _575  and  _576
REMARK  247  A    between atoms: _575  and  _578
REMARK  248  A    between atoms: _578  and  _579
REMARK  249  A    between atoms: _584  and  _586
REMARK  250  A    between atoms: _586  and  _587
REMARK  251  A    between atoms: _589  and  _591
REMARK  252  A    between atoms: _591  and  _592
REMARK  253  A    between atoms: _591  and  _594
REMARK  254  A    between atoms: _594  and  _595
REMARK  255  A    between atoms: _598  and  _600
REMARK  256  A    between atoms: _600  and  _601
REMARK  257  A    between atoms: _603  and  _605
REMARK  258  A    between atoms: _605  and  _606
REMARK  259  A    between atoms: _605  and  _608
REMARK  260  A    between atoms: _608  and  _609
REMARK  261  A    between atoms: _609  and  _610
REMARK  262  A    between atoms: _610  and  _611
REMARK  263  A    between atoms: _611  and  _612
REMARK  264  A    between atoms: _616  and  _618
REMARK  265  A    between atoms: _618  and  _619
REMARK  266  A    between atoms: _618  and  _621
REMARK  267  A    between atoms: _621  and  _622
REMARK  268  A    between atoms: _625  and  _627
REMARK  269  A    between atoms: _627  and  _628
REMARK  270  A    between atoms: _627  and  _630
REMARK  271  A    between atoms: _630  and  _631
REMARK                            x       y       z     vdW  Elec       q    Type
REMARK                         _______ _______ _______ _____ _____    ______ ____
ROOT
ATOM      1  C   ASN A   5      50.338 -17.397  55.833  0.00  0.00    +0.241 C 
ATOM      2  N   GLY A   6      49.008 -17.229  55.772  0.00  0.00    -0.295 N 
ATOM      3  H   GLY A   6      48.394 -17.747  56.433  0.00  0.00    +0.150 HD
ATOM      4  O   ASN A   5      51.145 -16.842  55.089  0.00  0.00    -0.273 OA
ENDROOT
BRANCH   1   5
ATOM      5  CA  ASN A   5      50.794 -18.489  56.841  0.00  0.00    +0.158 C 
BRANCH   5   7
ATOM      6  C   GLU A   4      51.861 -19.793  55.109  0.00  0.00    +0.241 C 
ATOM      7  N   ASN A   5      51.941 -19.203  56.290  0.00  0.00    -0.297 N 
ATOM      8  H   ASN A   5      52.829 -19.248  56.830  0.00  0.00    +0.150 HD
ATOM      9  O   GLU A   4      50.822 -19.791  54.426  0.00  0.00    -0.273 OA
BRANCH   6  10
ATOM     10  CA  GLU A   4      53.096 -20.515  54.598  0.00  0.00    +0.149 C 
BRANCH  10  13
ATOM     11  C   GLY A   3      52.829 -22.946  54.476  0.00  0.00    +0.243 C 
ATOM     12  O   GLY A   3      53.349 -23.153  55.593  0.00  0.00    -0.273 OA
ATOM     13  N   GLU A   4      52.735 -21.745  53.923  0.00  0.00    -0.297 N 
ATOM     14  H   GLU A   4      52.381 -21.682  52.947  0.00  0.00    +0.150 HD
BRANCH  11  15
ATOM     15  CA  GLY A   3      52.255 -24.139  53.769  0.00  0.00    +0.176 C 
BRANCH  15  17
ATOM     16  C   THR A   2      52.046 -23.862  51.395  0.00  0.00    +0.243 C 
ATOM     17  N   GLY A   3      51.486 -23.855  52.595  0.00  0.00    -0.295 N 
ATOM     18  H   GLY A   3      50.473 -23.640  52.686  0.00  0.00    +0.150 HD
ATOM     19  O   THR A   2      53.221 -24.174  51.199  0.00  0.00    -0.273 OA
BRANCH  16  20
ATOM     20  CA  THR A   2      51.220 -23.433  50.186  0.00  0.00    +0.176 C 
BRANCH  20  22
ATOM     21  C   ARG A   1      48.861 -23.985  49.633  0.00  0.00    +0.238 C 
ATOM     22  N   THR A   2      49.769 -23.473  50.444  0.00  0.00    -0.295 N 
ATOM     23  H   THR A   2      49.432 -23.064  51.339  0.00  0.00    +0.150 HD
ATOM     24  O   ARG A   1      49.138 -24.486  48.517  0.00  0.00    -0.274 OA
BRANCH  21  25
ATOM     25  CA  ARG A   1      47.426 -24.032  50.155  0.00  0.00    +0.145 C 
BRANCH  25  26
ATOM     26  N   ARG A   1      46.454 -24.009  49.085  0.00  0.00    -0.238 NA
ATOM     27  H   ARG A   1      45.930 -24.878  48.857  0.00  0.00    +0.142 HD
ENDBRANCH  25  26
BRANCH  25  28
ATOM     28  CB  ARG A   1      47.224 -25.243  51.061  0.00  0.00    +0.030 C 
BRANCH  28  29
ATOM     29  CG  ARG A   1      47.533 -26.585  50.382  0.00  0.00    +0.045 C 
BRANCH  29  30
ATOM     30  CD  ARG A   1      47.335 -27.748  51.330  0.00  0.00    +0.174 C 
BRANCH  30  31
ATOM     31  NE  ARG A   1      47.995 -27.589  52.625  0.00  0.00    -0.265 N 
ATOM     32  HE  ARG A   1      47.394 -27.578  53.474  0.00  0.00    +0.259 HD
ATOM     33  CZ  ARG A   1      49.310 -27.457  52.797  0.00  0.00    +0.342 C 
ATOM     34  NH2 ARG A   1      49.794 -27.161  53.985  0.00  0.00    -0.292 N 
ATOM     35 HH21 ARG A   1      49.150 -27.030  54.791  0.00  0.00    +0.255 HD
ATOM     36 HH22 ARG A   1      50.820 -27.058  54.118  0.00  0.00    +0.255 HD
ATOM     37  NH1 ARG A   1      50.166 -27.645  51.758  0.00  0.00    -0.292 N 
ATOM     38 HH11 ARG A   1      51.190 -27.540  51.903  0.00  0.00    +0.255 HD
ATOM     39 HH12 ARG A   1      49.796 -27.894  50.818  0.00  0.00    +0.255 HD
ENDBRANCH  30  31
ENDBRANCH  29  30
ENDBRANCH  28  29
ENDBRANCH  25  28
ENDBRANCH  21  25
ENDBRANCH  20  22
BRANCH  20  40
ATOM     40  CB  THR A   2      51.709 -21.999  49.816  0.00  0.00    +0.137 C 
ATOM     41  CG2 THR A   2      50.934 -21.373  48.663  0.00  0.00    +0.034 C 
BRANCH  40  42
ATOM     42  OG1 THR A   2      51.733 -21.151  50.977  0.00  0.00    -0.382 OA
ATOM     43  HG1 THR A   2      50.821 -21.089  51.358  0.00  0.00    +0.210 HD
ENDBRANCH  40  42
ENDBRANCH  20  40
ENDBRANCH  16  20
ENDBRANCH  15  17
ENDBRANCH  11  15
ENDBRANCH  10  13
BRANCH  10  44
ATOM     44  CB  GLU A   4      53.792 -19.532  53.653  0.00  0.00    +0.041 C 
BRANCH  44  45
ATOM     45  CG  GLU A   4      55.192 -19.980  53.358  0.00  0.00    +0.116 C 
BRANCH  45  46
ATOM     46  CD  GLU A   4      56.024 -18.982  52.398  0.00  0.00    +0.365 C 
ATOM     47  OE2 GLU A   4      57.169 -18.931  52.282  0.00  0.00    -0.246 OA
ATOM     48  OE1 GLU A   4      55.414 -18.285  51.790  0.00  0.00    -0.246 OA
ENDBRANCH  45  46
ENDBRANCH  44  45
ENDBRANCH  10  44
ENDBRANCH   6  10
ENDBRANCH   5   7
BRANCH   5  49
ATOM     49  CB  ASN A   5      51.134 -17.953  58.235  0.00  0.00    +0.114 C 
BRANCH  49  50
ATOM     50  CG  ASN A   5      52.040 -16.755  58.297  0.00  0.00    +0.222 C 
ATOM     51  ND2 ASN A   5      53.265 -16.910  58.776  0.00  0.00    -0.329 N 
ATOM     52 HD21 ASN A   5      53.579 -17.844  59.109  0.00  0.00    +0.145 HD
ATOM     53 HD22 ASN A   5      53.913 -16.098  58.819  0.00  0.00    +0.145 HD
ATOM     54  OD1 ASN A   5      51.671 -15.658  57.906  0.00  0.00    -0.275 OA
ENDBRANCH  49  50
ENDBRANCH   5  49
ENDBRANCH   1   5
BRANCH   2  55
ATOM     55  CA  GLY A   6      48.418 -16.337  54.799  0.00  0.00    +0.176 C 
BRANCH  55  56
ATOM     56  C   GLY A   6      47.682 -17.043  53.655  0.00  0.00    +0.243 C 
ATOM     57  N   ASP A   7      47.600 -18.378  53.733  0.00  0.00    -0.296 N 
ATOM     58  H   ASP A   7      47.982 -18.860  54.572  0.00  0.00    +0.150 HD
ATOM     59  O   GLY A   6      47.176 -16.399  52.745  0.00  0.00    -0.273 OA
BRANCH  57  60
ATOM     60  CA  ASP A   7      46.995 -19.166  52.683  0.00  0.00    +0.160 C 
BRANCH  60  61
ATOM     61  C   ASP A   7      45.486 -18.963  52.541  0.00  0.00    +0.241 C 
ATOM     62  N   GLY A   8      44.796 -18.514  53.561  0.00  0.00    -0.295 N 
ATOM     63  H   GLY A   8      45.263 -18.318  54.469  0.00  0.00    +0.150 HD
ATOM     64  O   ASP A   7      44.971 -19.286  51.450  0.00  0.00    -0.273 OA
BRANCH  62  65
ATOM     65  CA  GLY A   8      43.404 -18.300  53.406  0.00  0.00    +0.176 C 
BRANCH  65  66
ATOM     66  C   GLY A   8      42.518 -18.941  54.457  0.00  0.00    +0.243 C 
ATOM     67  O   GLY A   8      42.942 -19.687  55.333  0.00  0.00    -0.273 OA
ATOM     68  N   LYS A   9      41.232 -18.654  54.284  0.00  0.00    -0.297 N 
ATOM     69  H   LYS A   9      40.941 -18.100  53.453  0.00  0.00    +0.150 HD
BRANCH  68  70
ATOM     70  CA  LYS A   9      40.209 -19.105  55.247  0.00  0.00    +0.149 C 
BRANCH  70  71
ATOM     71  C   LYS A   9      38.906 -19.236  54.505  0.00  0.00    +0.241 C 
ATOM     72  N   ILE A  10      38.094 -20.195  54.902  0.00  0.00    -0.297 N 
ATOM     73  H   ILE A  10      38.391 -20.782  55.707  0.00  0.00    +0.150 HD
ATOM     74  O   LYS A   9      38.627 -18.450  53.582  0.00  0.00    -0.273 OA
BRANCH  72  75
ATOM     75  CA  ILE A  10      36.811 -20.484  54.287  0.00  0.00    +0.149 C 
BRANCH  75  76
ATOM     76  C   ILE A  10      35.699 -20.396  55.316  0.00  0.00    +0.241 C 
ATOM     77  O   ILE A  10      35.852 -20.937  56.411  0.00  0.00    -0.273 OA
ATOM     78  N   PHE A  11      34.609 -19.724  54.944  0.00  0.00    -0.298 N 
ATOM     79  H   PHE A  11      34.590 -19.286  54.001  0.00  0.00    +0.150 HD
BRANCH  78  80
ATOM     80  CA  PHE A  11      33.440 -19.578  55.809  0.00  0.00    +0.141 C 
BRANCH  80  81
ATOM     81  C   PHE A  11      32.231 -20.125  55.098  0.00  0.00    +0.227 C 
ATOM     82  O   PHE A  11      31.971 -19.719  53.946  0.00  0.00    -0.286 OA
ENDBRANCH  80  81
BRANCH  80  83
ATOM     83  CB  PHE A  11      33.198 -18.085  56.138  0.00  0.00    +0.054 C 
BRANCH  83  84
ATOM     84  CG  PHE A  11      34.425 -17.394  56.632  0.00  0.00    -0.020 A 
ATOM     85  CD2 PHE A  11      34.996 -17.673  57.868  0.00  0.00    -0.004 A 
ATOM     86  CE2 PHE A  11      36.142 -17.002  58.276  0.00  0.00    -0.000 A 
ATOM     87  CZ  PHE A  11      36.697 -16.031  57.512  0.00  0.00    -0.000 A 
ATOM     88  CE1 PHE A  11      36.155 -15.722  56.280  0.00  0.00    -0.000 A 
ATOM     89  CD1 PHE A  11      35.007 -16.393  55.870  0.00  0.00    -0.004 A 
ENDBRANCH  83  84
ENDBRANCH  80  83
ENDBRANCH  78  80
ENDBRANCH  75  76
BRANCH  75  90
ATOM     90  CB  ILE A  10      36.829 -21.874  53.635  0.00  0.00    +0.027 C 
ATOM     91  CG2 ILE A  10      35.442 -22.232  53.018  0.00  0.00    +0.002 C 
BRANCH  90  92
ATOM     92  CG1 ILE A  10      37.955 -22.000  52.596  0.00  0.00    +0.002 C 
ATOM     93  CD1 ILE A  10      38.173 -23.409  52.086  0.00  0.00    +0.000 C 
ENDBRANCH  90  92
ENDBRANCH  75  90
ENDBRANCH  72  75
ENDBRANCH  70  71
BRANCH  70  94
ATOM     94  CB  LYS A   9      40.115 -18.146  56.418  0.00  0.00    +0.029 C 
BRANCH  94  95
ATOM     95  CG  LYS A   9      39.424 -18.749  57.672  0.00  0.00    +0.000 C 
BRANCH  95  96
ATOM     96  CD  LYS A   9      39.672 -17.959  58.946  0.00  0.00    -0.024 C 
BRANCH  96  97
ATOM     97  CE  LYS A   9      41.109 -18.033  59.379  0.00  0.00    -0.086 C 
BRANCH  97  98
ATOM     98  NZ  LYS A   9      41.368 -17.255  60.616  0.00  0.00    +0.380 N 
ATOM     99  HZ1 LYS A   9      40.780 -17.628  61.388  0.00  0.00    -0.089 HD
ATOM    100  HZ2 LYS A   9      42.372 -17.338  60.873  0.00  0.00    -0.089 HD
ATOM    101  HZ3 LYS A   9      41.133 -16.255  60.451  0.00  0.00    -0.089 HD
ENDBRANCH  97  98
ENDBRANCH  96  97
ENDBRANCH  95  96
ENDBRANCH  94  95
ENDBRANCH  70  94
ENDBRANCH  68  70
ENDBRANCH  65  66
ENDBRANCH  62  65
ENDBRANCH  60  61
BRANCH  60 102
ATOM    102  CB  ASP A   7      47.250 -20.622  52.904  0.00  0.00    +0.143 C 
BRANCH 102 103
ATOM    103  CG  ASP A   7      48.609 -21.169  52.515  0.00  0.00    +0.367 C 
ATOM    104  OD2 ASP A   7      48.912 -22.317  52.876  0.00  0.00    -0.246 OA
ATOM    105  OD1 ASP A   7      49.308 -20.478  51.751  0.00  0.00    -0.246 OA
ENDBRANCH 102 103
ENDBRANCH  60 102
ENDBRANCH  57  60
ENDBRANCH  55  56
ENDBRANCH   2  55
TORSDOF 44
REMARK  Name = ../refined-set-2016/2xbp/2xbp_pocket.pdb
REMARK  271 active torsions:
REMARK  status: ('A' for Active; 'I' for Inactive)
REMARK    1  A    between atoms: _1  and  _3
REMARK    2  A    between atoms: _3  and  _4
REMARK    3  A    between atoms: _3  and  _6
REMARK    4  A    between atoms: _6  and  _7
REMARK    5  A    between atoms: _7  and  _8
REMARK    6  A    between atoms: _8  and  _9
REMARK    7  A    between atoms: _9  and  _10
REMARK    8  A    between atoms: _14  and  _16
REMARK    9  A    between atoms: _16  and  _17
REMARK   10  A    between atoms: _16  and  _19
REMARK   11  A    between atoms: _19  and  _20
REMARK   12  A    between atoms: _20  and  _21
REMARK   13  A    between atoms: _21  and  _22
REMARK   14  A    between atoms: _22  and  _23
REMARK   15  A    between atoms: _27  and  _29
REMARK   16  A    between atoms: _29  and  _30
REMARK   17  A    between atoms: _29  and  _32
REMARK   18  A    between atoms: _32  and  _33
REMARK   19  A    between atoms: _36  and  _38
REMARK   20  A    between atoms: _38  and  _39
REMARK   21  A    between atoms: _38  and  _41
REMARK   22  A    between atoms: _41  and  _42
REMARK   23  A    between atoms: _45  and  _47
REMARK   24  A    between atoms: _47  and  _48
REMARK   25  A    between atoms: _47  and  _50
REMARK   26  A    between atoms: _53  and  _55
REMARK   27  A    between atoms: _55  and  _56
REMARK   28  A    between atoms: _58  and  _60
REMARK   29  A    between atoms: _60  and  _61
REMARK   30  A    between atoms: _60  and  _63
REMARK   31  A    between atoms: _64  and  _65
REMARK   32  A    between atoms: _67  and  _69
REMARK   33  A    between atoms: _69  and  _70
REMARK   34  A    between atoms: _69  and  _72
REMARK   35  A    between atoms: _72  and  _73
REMARK   36  A    between atoms: _76  and  _78
REMARK   37  A    between atoms: _78  and  _79
REMARK   38  A    between atoms: _78  and  _81
REMARK   39  A    between atoms: _84  and  _86
REMARK   40  A    between atoms: _86  and  _87
REMARK   41  A    between atoms: _86  and  _89
REMARK   42  A    between atoms: _89  and  _90
REMARK   43  A    between atoms: _93  and  _95
REMARK   44  A    between atoms: _95  and  _96
REMARK   45  A    between atoms: _95  and  _98
REMARK   46  A    between atoms: _98  and  _99
REMARK   47  A    between atoms: _99  and  _100
REMARK   48  A    between atoms: _103  and  _105
REMARK   49  A    between atoms: _105  and  _106
REMARK   50  A    between atoms: _105  and  _108
REMARK   51  A    between atoms: _108  and  _109
REMARK   52  A    between atoms: _112  and  _114
REMARK   53  A    between atoms: _114  and  _115
REMARK   54  A    between atoms: _114  and  _117
REMARK   55  A    between atoms: _120  and  _122
REMARK   56  A    between atoms: _122  and  _123
REMARK   57  A    between atoms: _122  and  _125
REMARK   58  A    between atoms: _128  and  _130
REMARK   59  A    between atoms: _130  and  _131
REMARK   60  A    between atoms: _130  and  _133
REMARK   61  A    between atoms: _134  and  _135
REMARK   62  A    between atoms: _138  and  _140
REMARK   63  A    between atoms: _140  and  _141
REMARK   64  A    between atoms: _140  and  _143
REMARK   65  A    between atoms: _143  and  _144
REMARK   66  A    between atoms: _144  and  _145
REMARK   67  A    between atoms: _150  and  _152
REMARK   68  A    between atoms: _152  and  _153
REMARK   69  A    between atoms: _152  and  _155
REMARK   70  A    between atoms: _155  and  _156
REMARK   71  A    between atoms: _159  and  _161
REMARK   72  A    between atoms: _161  and  _162
REMARK   73  A    between atoms: _161  and  _164
REMARK   74  A    between atoms: _164  and  _165
REMARK   75  A    between atoms: _168  and  _170
REMARK   76  A    between atoms: _170  and  _171
REMARK   77  A    between atoms: _170  and  _173
REMARK   78  A    between atoms: _173  and  _174
REMARK   79  A    between atoms: _174  and  _175
REMARK   80  A    between atoms: _175  and  _176
REMARK   81  A    between atoms: _185  and  _187
REMARK   82  A    between atoms: _187  and  _188
REMARK   83  A    between atoms: _187  and  _190
REMARK   84  A    between atoms: _190  and  _191
REMARK   85  A    between atoms: _194  and  _196
REMARK   86  A    between atoms: _196  and  _197
REMARK   87  A    between atoms: _196  and  _199
REMARK   88  A    between atoms: _199  and  _200
REMARK   89  A    between atoms: _200  and  _201
REMARK   90  A    between atoms: _201  and  _202
REMARK   91  A    between atoms: _211  and  _213
REMARK   92  A    between atoms: _213  and  _214
REMARK   93  A    between atoms: _213  and  _216
REMARK   94  A    between atoms: _216  and  _217
REMARK   95  A    between atoms: _220  and  _222
REMARK   96  A    between atoms: _222  and  _223
REMARK   97  A    between atoms: _225  and  _227
REMARK   98  A    between atoms: _227  and  _228
REMARK   99  A    between atoms: _227  and  _230
REMARK  100  A    between atoms: _230  and  _231
REMARK  101  A    between atoms: _231  and  _232
REMARK  102  A    between atoms: _235  and  _237
REMARK  103  A    between atoms: _237  and  _238
REMARK  104  A    between atoms: _237  and  _240
REMARK  105  A    between atoms: _240  and  _241
REMARK  106  A    between atoms: _244  and  _246
REMARK  107  A    between atoms: _246  and  _247
REMARK  108  A    between atoms: _250  and  _252
REMARK  109  A    between atoms: _252  and  _253
REMARK  110  A    between atoms: _252  and  _255
REMARK  111  A    between atoms: _255  and  _256
REMARK  112  A    between atoms: _261  and  _262
REMARK  113  A    between atoms: _261  and  _264
REMARK  114  A    between atoms: _264  and  _265
REMARK  115  A    between atoms: _267  and  _269
REMARK  116  A    between atoms: _269  and  _270
REMARK  117  A    between atoms: _273  and  _275
REMARK  118  A    between atoms: _275  and  _276
REMARK  119  A    between atoms: _275  and  _278
REMARK  120  A    between atoms: _278  and  _279
REMARK  121  A    between atoms: _282  and  _284
REMARK  122  A    between atoms: _284  and  _285
REMARK  123  A    between atoms: _284  and  _287
REMARK  124  A    between atoms: _287  and  _288
REMARK  125  A    between atoms: _291  and  _293
REMARK  126  A    between atoms: _293  and  _294
REMARK  127  A    between atoms: _293  and  _296
REMARK  128  A    between atoms: _296  and  _297
REMARK  129  A    between atoms: _297  and  _298
REMARK  130  A    between atoms: _298  and  _299
REMARK  131  A    between atoms: _308  and  _310
REMARK  132  A    between atoms: _310  and  _311
REMARK  133  A    between atoms: _310  and  _313
REMARK  134  A    between atoms: _316  and  _318
REMARK  135  A    between atoms: _318  and  _319
REMARK  136  A    between atoms: _318  and  _321
REMARK  137  A    between atoms: _321  and  _322
REMARK  138  A    between atoms: _322  and  _323
REMARK  139  A    between atoms: _323  and  _324
REMARK  140  A    between atoms: _333  and  _335
REMARK  141  A    between atoms: _335  and  _336
REMARK  142  A    between atoms: _338  and  _340
REMARK  143  A    between atoms: _340  and  _341
REMARK  144  A    between atoms: _340  and  _343
REMARK  145  A    between atoms: _343  and  _344
REMARK  146  A    between atoms: _350  and  _352
REMARK  147  A    between atoms: _352  and  _353
REMARK  148  A    between atoms: _353  and  _354
REMARK  149  A    between atoms: _353  and  _355
REMARK  150  A    between atoms: _354  and  MG_637
REMARK  151  A    between atoms: _355  and  _357
REMARK  152  A    between atoms: _357  and  _358
REMARK  153  A    between atoms: _357  and  _360
REMARK  154  A    between atoms: _360  and  _361
REMARK  155  A    between atoms: _361  and  _362
REMARK  156  A    between atoms: _362  and  _363
REMARK  157  A    between atoms: _372  and  _374
REMARK  158  A    between atoms: _374  and  _375
REMARK  159  A    between atoms: _374  and  _377
REMARK  160  A    between atoms: _377  and  _378
REMARK  161  A    between atoms: _378  and  _379
REMARK  162  A    between atoms: _384  and  _386
REMARK  163  A    between atoms: _386  and  _387
REMARK  164  A    between atoms: _386  and  _389
REMARK  165  A    between atoms: _389  and  _390
REMARK  166  A    between atoms: _390  and  _391
REMARK  167  A    between atoms: _391  and  _392
REMARK  168  A    between atoms: _392  and  _393
REMARK  169  A    between atoms: _397  and  _399
REMARK  170  A    between atoms: _399  and  _400
REMARK  171  A    between atoms: _399  and  _402
REMARK  172  A    between atoms: _402  and  _403
REMARK  173  A    between atoms: _403  and  _404
REMARK  174  A    between atoms: _409  and  _411
REMARK  175  A    between atoms: _411  and  _412
REMARK  176  A    between atoms: _411  and  _414
REMARK  177  A    between atoms: _414  and  _415
REMARK  178  A    between atoms: _418  and  _420
REMARK  179  A    between atoms: _420  and  _421
REMARK  180  A    between atoms: _420  and  _423
REMARK  181  A    between atoms: _423  and  _424
REMARK  182  A    between atoms: _424  and  _425
REMARK  183  A    between atoms: _428  and  _430
REMARK  184  A    between atoms: _430  and  _431
REMARK  185  A    between atoms: _430  and  _433
REMARK  186  A    between atoms: _434  and  _435
REMARK  187  A    between atoms: _435  and  _436
REMARK  188  A    between atoms: _445  and  _447
REMARK  189  A    between atoms: _447  and  _448
REMARK  190  A    between atoms: _447  and  _450
REMARK  191  A    between atoms: _450  and  _451
REMARK  192  A    between atoms: _454  and  _456
REMARK  193  A    between atoms: _456  and  _457
REMARK  194  A    between atoms: _456  and  _459
REMARK  195  A    between atoms: _459  and  _460
REMARK  196  A    between atoms: _460  and  _461
REMARK  197  A    between atoms: _464  and  _466
REMARK  198  A    between atoms: _466  and  _467
REMARK  199  A    between atoms: _466  and  _469
REMARK  200  A    between atoms: _469  and  _470
REMARK  201  A    between atoms: _476  and  _478
REMARK  202  A    between atoms: _478  and  _479
REMARK  203  A    between atoms: _478  and  _481
REMARK  204  A    between atoms: _481  and  _482
REMARK  205  A    between atoms: _485  and  _487
REMARK  206  A    between atoms: _487  and  _488
REMARK  207  A    between atoms: _487  and  _490
REMARK  208  A    between atoms: _490  and  _491
REMARK  209  A    between atoms: _491  and  _492
REMARK  210  A    between atoms: _497  and  _499
REMARK  211  A    between atoms: _499  and  _500
REMARK  212  A    between atoms: _499  and  _502
REMARK  213  A    between atoms: _502  and  _503
REMARK  214  A    between atoms: _503  and  _504
REMARK  215  A    between atoms: _504  and  _505
REMARK  216  A    between atoms: _505  and  _506
REMARK  217  A    between atoms: _510  and  _512
REMARK  218  A    between atoms: _512  and  _513
REMARK  219  A    between atoms: _512  and  _515
REMARK  220  A    between atoms: _515  and  _516
REMARK  221  A    between atoms: _519  and  _521
REMARK  222  A    between atoms: _521  and  _522
REMARK  223  A    between atoms: _521  and  _524
REMARK  224  A    between atoms: _524  and  _525
REMARK  225  A    between atoms: _525  and  _526
REMARK  226  A    between atoms: _526  and  _527
REMARK  227  A    between atoms: _527  and  _528
REMARK  228  A    between atoms: _532  and  _534
REMARK  229  A    between atoms: _534  and  _535
REMARK  230  A    between atoms: _534  and  _537
REMARK  231  A    between atoms: _537  and  _538
REMARK  232  A    between atoms: _538  and  _539
REMARK  233  A    between atoms: _539  and  _540
REMARK  234  A    between atoms: _549  and  _551
REMARK  235  A    between atoms: _551  and  _552
REMARK  236  A    between atoms: _551  and  _554
REMARK  237  A    between atoms: _554  and  _555
REMARK  238  A    between atoms: _558  and  _560
REMARK  239  A    between atoms: _560  and  _561
REMARK  240  A    between atoms: _563  and  _565
REMARK  241  A    between atoms: _565  and  _566
REMARK  242  A    between atoms: _565  and  _568
REMARK  243  A    between atoms: _568  and  _569
REMARK  244  A    between atoms: _569  and  _570
REMARK  245  A    between atoms: _573  and  _575
REMARK  246  A    between atoms: _575  and  _576
REMARK  247  A    between atoms: _575  and  _578
REMARK  248  A    between atoms: _578  and  _579
REMARK  249  A    between atoms: _584  and  _586
REMARK  250  A    between atoms: _586  and  _587
REMARK  251  A    between atoms: _589  and  _591
REMARK  252  A    between atoms: _591  and  _592
REMARK  253  A    between atoms: _591  and  _594
REMARK  254  A    between atoms: _594  and  _595
REMARK  255  A    between atoms: _598  and  _600
REMARK  256  A    between atoms: _600  and  _601
REMARK  257  A    between atoms: _603  and  _605
REMARK  258  A    between atoms: _605  and  _606
REMARK  259  A    between atoms: _605  and  _608
REMARK  260  A    between atoms: _608  and  _609
REMARK  261  A    between atoms: _609  and  _610
REMARK  262  A    between atoms: _610  and  _611
REMARK  263  A    between atoms: _611  and  _612
REMARK  264  A    between atoms: _616  and  _618
REMARK  265  A    between atoms: _618  and  _619
REMARK  266  A    between atoms: _618  and  _621
REMARK  267  A    between atoms: _621  and  _622
REMARK  268  A    between atoms: _625  and  _627
REMARK  269  A    between atoms: _627  and  _628
REMARK  270  A    between atoms: _627  and  _630
REMARK  271  A    between atoms: _630  and  _631
REMARK                            x       y       z     vdW  Elec       q    Type
REMARK                         _______ _______ _______ _____ _____    ______ ____
ROOT
ATOM      1  O   HOH     1      39.831 -12.205  66.050  0.00  0.00    +0.000 OA
ENDROOT
TORSDOF 0
REMARK  Name = ../refined-set-2016/2xbp/2xbp_pocket.pdb
REMARK  271 active torsions:
REMARK  status: ('A' for Active; 'I' for Inactive)
REMARK    1  A    between atoms: _1  and  _3
REMARK    2  A    between atoms: _3  and  _4
REMARK    3  A    between atoms: _3  and  _6
REMARK    4  A    between atoms: _6  and  _7
REMARK    5  A    between atoms: _7  and  _8
REMARK    6  A    between atoms: _8  and  _9
REMARK    7  A    between atoms: _9  and  _10
REMARK    8  A    between atoms: _14  and  _16
REMARK    9  A    between atoms: _16  and  _17
REMARK   10  A    between atoms: _16  and  _19
REMARK   11  A    between atoms: _19  and  _20
REMARK   12  A    between atoms: _20  and  _21
REMARK   13  A    between atoms: _21  and  _22
REMARK   14  A    between atoms: _22  and  _23
REMARK   15  A    between atoms: _27  and  _29
REMARK   16  A    between atoms: _29  and  _30
REMARK   17  A    between atoms: _29  and  _32
REMARK   18  A    between atoms: _32  and  _33
REMARK   19  A    between atoms: _36  and  _38
REMARK   20  A    between atoms: _38  and  _39
REMARK   21  A    between atoms: _38  and  _41
REMARK   22  A    between atoms: _41  and  _42
REMARK   23  A    between atoms: _45  and  _47
REMARK   24  A    between atoms: _47  and  _48
REMARK   25  A    between atoms: _47  and  _50
REMARK   26  A    between atoms: _53  and  _55
REMARK   27  A    between atoms: _55  and  _56
REMARK   28  A    between atoms: _58  and  _60
REMARK   29  A    between atoms: _60  and  _61
REMARK   30  A    between atoms: _60  and  _63
REMARK   31  A    between atoms: _64  and  _65
REMARK   32  A    between atoms: _67  and  _69
REMARK   33  A    between atoms: _69  and  _70
REMARK   34  A    between atoms: _69  and  _72
REMARK   35  A    between atoms: _72  and  _73
REMARK   36  A    between atoms: _76  and  _78
REMARK   37  A    between atoms: _78  and  _79
REMARK   38  A    between atoms: _78  and  _81
REMARK   39  A    between atoms: _84  and  _86
REMARK   40  A    between atoms: _86  and  _87
REMARK   41  A    between atoms: _86  and  _89
REMARK   42  A    between atoms: _89  and  _90
REMARK   43  A    between atoms: _93  and  _95
REMARK   44  A    between atoms: _95  and  _96
REMARK   45  A    between atoms: _95  and  _98
REMARK   46  A    between atoms: _98  and  _99
REMARK   47  A    between atoms: _99  and  _100
REMARK   48  A    between atoms: _103  and  _105
REMARK   49  A    between atoms: _105  and  _106
REMARK   50  A    between atoms: _105  and  _108
REMARK   51  A    between atoms: _108  and  _109
REMARK   52  A    between atoms: _112  and  _114
REMARK   53  A    between atoms: _114  and  _115
REMARK   54  A    between atoms: _114  and  _117
REMARK   55  A    between atoms: _120  and  _122
REMARK   56  A    between atoms: _122  and  _123
REMARK   57  A    between atoms: _122  and  _125
REMARK   58  A    between atoms: _128  and  _130
REMARK   59  A    between atoms: _130  and  _131
REMARK   60  A    between atoms: _130  and  _133
REMARK   61  A    between atoms: _134  and  _135
REMARK   62  A    between atoms: _138  and  _140
REMARK   63  A    between atoms: _140  and  _141
REMARK   64  A    between atoms: _140  and  _143
REMARK   65  A    between atoms: _143  and  _144
REMARK   66  A    between atoms: _144  and  _145
REMARK   67  A    between atoms: _150  and  _152
REMARK   68  A    between atoms: _152  and  _153
REMARK   69  A    between atoms: _152  and  _155
REMARK   70  A    between atoms: _155  and  _156
REMARK   71  A    between atoms: _159  and  _161
REMARK   72  A    between atoms: _161  and  _162
REMARK   73  A    between atoms: _161  and  _164
REMARK   74  A    between atoms: _164  and  _165
REMARK   75  A    between atoms: _168  and  _170
REMARK   76  A    between atoms: _170  and  _171
REMARK   77  A    between atoms: _170  and  _173
REMARK   78  A    between atoms: _173  and  _174
REMARK   79  A    between atoms: _174  and  _175
REMARK   80  A    between atoms: _175  and  _176
REMARK   81  A    between atoms: _185  and  _187
REMARK   82  A    between atoms: _187  and  _188
REMARK   83  A    between atoms: _187  and  _190
REMARK   84  A    between atoms: _190  and  _191
REMARK   85  A    between atoms: _194  and  _196
REMARK   86  A    between atoms: _196  and  _197
REMARK   87  A    between atoms: _196  and  _199
REMARK   88  A    between atoms: _199  and  _200
REMARK   89  A    between atoms: _200  and  _201
REMARK   90  A    between atoms: _201  and  _202
REMARK   91  A    between atoms: _211  and  _213
REMARK   92  A    between atoms: _213  and  _214
REMARK   93  A    between atoms: _213  and  _216
REMARK   94  A    between atoms: _216  and  _217
REMARK   95  A    between atoms: _220  and  _222
REMARK   96  A    between atoms: _222  and  _223
REMARK   97  A    between atoms: _225  and  _227
REMARK   98  A    between atoms: _227  and  _228
REMARK   99  A    between atoms: _227  and  _230
REMARK  100  A    between atoms: _230  and  _231
REMARK  101  A    between atoms: _231  and  _232
REMARK  102  A    between atoms: _235  and  _237
REMARK  103  A    between atoms: _237  and  _238
REMARK  104  A    between atoms: _237  and  _240
REMARK  105  A    between atoms: _240  and  _241
REMARK  106  A    between atoms: _244  and  _246
REMARK  107  A    between atoms: _246  and  _247
REMARK  108  A    between atoms: _250  and  _252
REMARK  109  A    between atoms: _252  and  _253
REMARK  110  A    between atoms: _252  and  _255
REMARK  111  A    between atoms: _255  and  _256
REMARK  112  A    between atoms: _261  and  _262
REMARK  113  A    between atoms: _261  and  _264
REMARK  114  A    between atoms: _264  and  _265
REMARK  115  A    between atoms: _267  and  _269
REMARK  116  A    between atoms: _269  and  _270
REMARK  117  A    between atoms: _273  and  _275
REMARK  118  A    between atoms: _275  and  _276
REMARK  119  A    between atoms: _275  and  _278
REMARK  120  A    between atoms: _278  and  _279
REMARK  121  A    between atoms: _282  and  _284
REMARK  122  A    between atoms: _284  and  _285
REMARK  123  A    between atoms: _284  and  _287
REMARK  124  A    between atoms: _287  and  _288
REMARK  125  A    between atoms: _291  and  _293
REMARK  126  A    between atoms: _293  and  _294
REMARK  127  A    between atoms: _293  and  _296
REMARK  128  A    between atoms: _296  and  _297
REMARK  129  A    between atoms: _297  and  _298
REMARK  130  A    between atoms: _298  and  _299
REMARK  131  A    between atoms: _308  and  _310
REMARK  132  A    between atoms: _310  and  _311
REMARK  133  A    between atoms: _310  and  _313
REMARK  134  A    between atoms: _316  and  _318
REMARK  135  A    between atoms: _318  and  _319
REMARK  136  A    between atoms: _318  and  _321
REMARK  137  A    between atoms: _321  and  _322
REMARK  138  A    between atoms: _322  and  _323
REMARK  139  A    between atoms: _323  and  _324
REMARK  140  A    between atoms: _333  and  _335
REMARK  141  A    between atoms: _335  and  _336
REMARK  142  A    between atoms: _338  and  _340
REMARK  143  A    between atoms: _340  and  _341
REMARK  144  A    between atoms: _340  and  _343
REMARK  145  A    between atoms: _343  and  _344
REMARK  146  A    between atoms: _350  and  _352
REMARK  147  A    between atoms: _352  and  _353
REMARK  148  A    between atoms: _353  and  _354
REMARK  149  A    between atoms: _353  and  _355
REMARK  150  A    between atoms: _354  and  MG_637
REMARK  151  A    between atoms: _355  and  _357
REMARK  152  A    between atoms: _357  and  _358
REMARK  153  A    between atoms: _357  and  _360
REMARK  154  A    between atoms: _360  and  _361
REMARK  155  A    between atoms: _361  and  _362
REMARK  156  A    between atoms: _362  and  _363
REMARK  157  A    between atoms: _372  and  _374
REMARK  158  A    between atoms: _374  and  _375
REMARK  159  A    between atoms: _374  and  _377
REMARK  160  A    between atoms: _377  and  _378
REMARK  161  A    between atoms: _378  and  _379
REMARK  162  A    between atoms: _384  and  _386
REMARK  163  A    between atoms: _386  and  _387
REMARK  164  A    between atoms: _386  and  _389
REMARK  165  A    between atoms: _389  and  _390
REMARK  166  A    between atoms: _390  and  _391
REMARK  167  A    between atoms: _391  and  _392
REMARK  168  A    between atoms: _392  and  _393
REMARK  169  A    between atoms: _397  and  _399
REMARK  170  A    between atoms: _399  and  _400
REMARK  171  A    between atoms: _399  and  _402
REMARK  172  A    between atoms: _402  and  _403
REMARK  173  A    between atoms: _403  and  _404
REMARK  174  A    between atoms: _409  and  _411
REMARK  175  A    between atoms: _411  and  _412
REMARK  176  A    between atoms: _411  and  _414
REMARK  177  A    between atoms: _414  and  _415
REMARK  178  A    between atoms: _418  and  _420
REMARK  179  A    between atoms: _420  and  _421
REMARK  180  A    between atoms: _420  and  _423
REMARK  181  A    between atoms: _423  and  _424
REMARK  182  A    between atoms: _424  and  _425
REMARK  183  A    between atoms: _428  and  _430
REMARK  184  A    between atoms: _430  and  _431
REMARK  185  A    between atoms: _430  and  _433
REMARK  186  A    between atoms: _434  and  _435
REMARK  187  A    between atoms: _435  and  _436
REMARK  188  A    between atoms: _445  and  _447
REMARK  189  A    between atoms: _447  and  _448
REMARK  190  A    between atoms: _447  and  _450
REMARK  191  A    between atoms: _450  and  _451
REMARK  192  A    between atoms: _454  and  _456
REMARK  193  A    between atoms: _456  and  _457
REMARK  194  A    between atoms: _456  and  _459
REMARK  195  A    between atoms: _459  and  _460
REMARK  196  A    between atoms: _460  and  _461
REMARK  197  A    between atoms: _464  and  _466
REMARK  198  A    between atoms: _466  and  _467
REMARK  199  A    between atoms: _466  and  _469
REMARK  200  A    between atoms: _469  and  _470
REMARK  201  A    between atoms: _476  and  _478
REMARK  202  A    between atoms: _478  and  _479
REMARK  203  A    between atoms: _478  and  _481
REMARK  204  A    between atoms: _481  and  _482
REMARK  205  A    between atoms: _485  and  _487
REMARK  206  A    between atoms: _487  and  _488
REMARK  207  A    between atoms: _487  and  _490
REMARK  208  A    between atoms: _490  and  _491
REMARK  209  A    between atoms: _491  and  _492
REMARK  210  A    between atoms: _497  and  _499
REMARK  211  A    between atoms: _499  and  _500
REMARK  212  A    between atoms: _499  and  _502
REMARK  213  A    between atoms: _502  and  _503
REMARK  214  A    between atoms: _503  and  _504
REMARK  215  A    between atoms: _504  and  _505
REMARK  216  A    between atoms: _505  and  _506
REMARK  217  A    between atoms: _510  and  _512
REMARK  218  A    between atoms: _512  and  _513
REMARK  219  A    between atoms: _512  and  _515
REMARK  220  A    between atoms: _515  and  _516
REMARK  221  A    between atoms: _519  and  _521
REMARK  222  A    between atoms: _521  and  _522
REMARK  223  A    between atoms: _521  and  _524
REMARK  224  A    between atoms: _524  and  _525
REMARK  225  A    between atoms: _525  and  _526
REMARK  226  A    between atoms: _526  and  _527
REMARK  227  A    between atoms: _527  and  _528
REMARK  228  A    between atoms: _532  and  _534
REMARK  229  A    between atoms: _534  and  _535
REMARK  230  A    between atoms: _534  and  _537
REMARK  231  A    between atoms: _537  and  _538
REMARK  232  A    between atoms: _538  and  _539
REMARK  233  A    between atoms: _539  and  _540
REMARK  234  A    between atoms: _549  and  _551
REMARK  235  A    between atoms: _551  and  _552
REMARK  236  A    between atoms: _551  and  _554
REMARK  237  A    between atoms: _554  and  _555
REMARK  238  A    between atoms: _558  and  _560
REMARK  239  A    between atoms: _560  and  _561
REMARK  240  A    between atoms: _563  and  _565
REMARK  241  A    between atoms: _565  and  _566
REMARK  242  A    between atoms: _565  and  _568
REMARK  243  A    between atoms: _568  and  _569
REMARK  244  A    between atoms: _569  and  _570
REMARK  245  A    between atoms: _573  and  _575
REMARK  246  A    between atoms: _575  and  _576
REMARK  247  A    between atoms: _575  and  _578
REMARK  248  A    between atoms: _578  and  _579
REMARK  249  A    between atoms: _584  and  _586
REMARK  250  A    between atoms: _586  and  _587
REMARK  251  A    between atoms: _589  and  _591
REMARK  252  A    between atoms: _591  and  _592
REMARK  253  A    between atoms: _591  and  _594
REMARK  254  A    between atoms: _594  and  _595
REMARK  255  A    between atoms: _598  and  _600
REMARK  256  A    between atoms: _600  and  _601
REMARK  257  A    between atoms: _603  and  _605
REMARK  258  A    between atoms: _605  and  _606
REMARK  259  A    between atoms: _605  and  _608
REMARK  260  A    between atoms: _608  and  _609
REMARK  261  A    between atoms: _609  and  _610
REMARK  262  A    between atoms: _610  and  _611
REMARK  263  A    between atoms: _611  and  _612
REMARK  264  A    between atoms: _616  and  _618
REMARK  265  A    between atoms: _618  and  _619
REMARK  266  A    between atoms: _618  and  _621
REMARK  267  A    between atoms: _621  and  _622
REMARK  268  A    between atoms: _625  and  _627
REMARK  269  A    between atoms: _627  and  _628
REMARK  270  A    between atoms: _627  and  _630
REMARK  271  A    between atoms: _630  and  _631
REMARK                            x       y       z     vdW  Elec       q    Type
REMARK                         _______ _______ _______ _____ _____    ______ ____
ROOT
ATOM      1  O   HOH     1      38.816 -11.786  63.914  0.00  0.00    +0.000 OA
ENDROOT
TORSDOF 0
REMARK  Name = ../refined-set-2016/2xbp/2xbp_pocket.pdb
REMARK  271 active torsions:
REMARK  status: ('A' for Active; 'I' for Inactive)
REMARK    1  A    between atoms: _1  and  _3
REMARK    2  A    between atoms: _3  and  _4
REMARK    3  A    between atoms: _3  and  _6
REMARK    4  A    between atoms: _6  and  _7
REMARK    5  A    between atoms: _7  and  _8
REMARK    6  A    between atoms: _8  and  _9
REMARK    7  A    between atoms: _9  and  _10
REMARK    8  A    between atoms: _14  and  _16
REMARK    9  A    between atoms: _16  and  _17
REMARK   10  A    between atoms: _16  and  _19
REMARK   11  A    between atoms: _19  and  _20
REMARK   12  A    between atoms: _20  and  _21
REMARK   13  A    between atoms: _21  and  _22
REMARK   14  A    between atoms: _22  and  _23
REMARK   15  A    between atoms: _27  and  _29
REMARK   16  A    between atoms: _29  and  _30
REMARK   17  A    between atoms: _29  and  _32
REMARK   18  A    between atoms: _32  and  _33
REMARK   19  A    between atoms: _36  and  _38
REMARK   20  A    between atoms: _38  and  _39
REMARK   21  A    between atoms: _38  and  _41
REMARK   22  A    between atoms: _41  and  _42
REMARK   23  A    between atoms: _45  and  _47
REMARK   24  A    between atoms: _47  and  _48
REMARK   25  A    between atoms: _47  and  _50
REMARK   26  A    between atoms: _53  and  _55
REMARK   27  A    between atoms: _55  and  _56
REMARK   28  A    between atoms: _58  and  _60
REMARK   29  A    between atoms: _60  and  _61
REMARK   30  A    between atoms: _60  and  _63
REMARK   31  A    between atoms: _64  and  _65
REMARK   32  A    between atoms: _67  and  _69
REMARK   33  A    between atoms: _69  and  _70
REMARK   34  A    between atoms: _69  and  _72
REMARK   35  A    between atoms: _72  and  _73
REMARK   36  A    between atoms: _76  and  _78
REMARK   37  A    between atoms: _78  and  _79
REMARK   38  A    between atoms: _78  and  _81
REMARK   39  A    between atoms: _84  and  _86
REMARK   40  A    between atoms: _86  and  _87
REMARK   41  A    between atoms: _86  and  _89
REMARK   42  A    between atoms: _89  and  _90
REMARK   43  A    between atoms: _93  and  _95
REMARK   44  A    between atoms: _95  and  _96
REMARK   45  A    between atoms: _95  and  _98
REMARK   46  A    between atoms: _98  and  _99
REMARK   47  A    between atoms: _99  and  _100
REMARK   48  A    between atoms: _103  and  _105
REMARK   49  A    between atoms: _105  and  _106
REMARK   50  A    between atoms: _105  and  _108
REMARK   51  A    between atoms: _108  and  _109
REMARK   52  A    between atoms: _112  and  _114
REMARK   53  A    between atoms: _114  and  _115
REMARK   54  A    between atoms: _114  and  _117
REMARK   55  A    between atoms: _120  and  _122
REMARK   56  A    between atoms: _122  and  _123
REMARK   57  A    between atoms: _122  and  _125
REMARK   58  A    between atoms: _128  and  _130
REMARK   59  A    between atoms: _130  and  _131
REMARK   60  A    between atoms: _130  and  _133
REMARK   61  A    between atoms: _134  and  _135
REMARK   62  A    between atoms: _138  and  _140
REMARK   63  A    between atoms: _140  and  _141
REMARK   64  A    between atoms: _140  and  _143
REMARK   65  A    between atoms: _143  and  _144
REMARK   66  A    between atoms: _144  and  _145
REMARK   67  A    between atoms: _150  and  _152
REMARK   68  A    between atoms: _152  and  _153
REMARK   69  A    between atoms: _152  and  _155
REMARK   70  A    between atoms: _155  and  _156
REMARK   71  A    between atoms: _159  and  _161
REMARK   72  A    between atoms: _161  and  _162
REMARK   73  A    between atoms: _161  and  _164
REMARK   74  A    between atoms: _164  and  _165
REMARK   75  A    between atoms: _168  and  _170
REMARK   76  A    between atoms: _170  and  _171
REMARK   77  A    between atoms: _170  and  _173
REMARK   78  A    between atoms: _173  and  _174
REMARK   79  A    between atoms: _174  and  _175
REMARK   80  A    between atoms: _175  and  _176
REMARK   81  A    between atoms: _185  and  _187
REMARK   82  A    between atoms: _187  and  _188
REMARK   83  A    between atoms: _187  and  _190
REMARK   84  A    between atoms: _190  and  _191
REMARK   85  A    between atoms: _194  and  _196
REMARK   86  A    between atoms: _196  and  _197
REMARK   87  A    between atoms: _196  and  _199
REMARK   88  A    between atoms: _199  and  _200
REMARK   89  A    between atoms: _200  and  _201
REMARK   90  A    between atoms: _201  and  _202
REMARK   91  A    between atoms: _211  and  _213
REMARK   92  A    between atoms: _213  and  _214
REMARK   93  A    between atoms: _213  and  _216
REMARK   94  A    between atoms: _216  and  _217
REMARK   95  A    between atoms: _220  and  _222
REMARK   96  A    between atoms: _222  and  _223
REMARK   97  A    between atoms: _225  and  _227
REMARK   98  A    between atoms: _227  and  _228
REMARK   99  A    between atoms: _227  and  _230
REMARK  100  A    between atoms: _230  and  _231
REMARK  101  A    between atoms: _231  and  _232
REMARK  102  A    between atoms: _235  and  _237
REMARK  103  A    between atoms: _237  and  _238
REMARK  104  A    between atoms: _237  and  _240
REMARK  105  A    between atoms: _240  and  _241
REMARK  106  A    between atoms: _244  and  _246
REMARK  107  A    between atoms: _246  and  _247
REMARK  108  A    between atoms: _250  and  _252
REMARK  109  A    between atoms: _252  and  _253
REMARK  110  A    between atoms: _252  and  _255
REMARK  111  A    between atoms: _255  and  _256
REMARK  112  A    between atoms: _261  and  _262
REMARK  113  A    between atoms: _261  and  _264
REMARK  114  A    between atoms: _264  and  _265
REMARK  115  A    between atoms: _267  and  _269
REMARK  116  A    between atoms: _269  and  _270
REMARK  117  A    between atoms: _273  and  _275
REMARK  118  A    between atoms: _275  and  _276
REMARK  119  A    between atoms: _275  and  _278
REMARK  120  A    between atoms: _278  and  _279
REMARK  121  A    between atoms: _282  and  _284
REMARK  122  A    between atoms: _284  and  _285
REMARK  123  A    between atoms: _284  and  _287
REMARK  124  A    between atoms: _287  and  _288
REMARK  125  A    between atoms: _291  and  _293
REMARK  126  A    between atoms: _293  and  _294
REMARK  127  A    between atoms: _293  and  _296
REMARK  128  A    between atoms: _296  and  _297
REMARK  129  A    between atoms: _297  and  _298
REMARK  130  A    between atoms: _298  and  _299
REMARK  131  A    between atoms: _308  and  _310
REMARK  132  A    between atoms: _310  and  _311
REMARK  133  A    between atoms: _310  and  _313
REMARK  134  A    between atoms: _316  and  _318
REMARK  135  A    between atoms: _318  and  _319
REMARK  136  A    between atoms: _318  and  _321
REMARK  137  A    between atoms: _321  and  _322
REMARK  138  A    between atoms: _322  and  _323
REMARK  139  A    between atoms: _323  and  _324
REMARK  140  A    between atoms: _333  and  _335
REMARK  141  A    between atoms: _335  and  _336
REMARK  142  A    between atoms: _338  and  _340
REMARK  143  A    between atoms: _340  and  _341
REMARK  144  A    between atoms: _340  and  _343
REMARK  145  A    between atoms: _343  and  _344
REMARK  146  A    between atoms: _350  and  _352
REMARK  147  A    between atoms: _352  and  _353
REMARK  148  A    between atoms: _353  and  _354
REMARK  149  A    between atoms: _353  and  _355
REMARK  150  A    between atoms: _354  and  MG_637
REMARK  151  A    between atoms: _355  and  _357
REMARK  152  A    between atoms: _357  and  _358
REMARK  153  A    between atoms: _357  and  _360
REMARK  154  A    between atoms: _360  and  _361
REMARK  155  A    between atoms: _361  and  _362
REMARK  156  A    between atoms: _362  and  _363
REMARK  157  A    between atoms: _372  and  _374
REMARK  158  A    between atoms: _374  and  _375
REMARK  159  A    between atoms: _374  and  _377
REMARK  160  A    between atoms: _377  and  _378
REMARK  161  A    between atoms: _378  and  _379
REMARK  162  A    between atoms: _384  and  _386
REMARK  163  A    between atoms: _386  and  _387
REMARK  164  A    between atoms: _386  and  _389
REMARK  165  A    between atoms: _389  and  _390
REMARK  166  A    between atoms: _390  and  _391
REMARK  167  A    between atoms: _391  and  _392
REMARK  168  A    between atoms: _392  and  _393
REMARK  169  A    between atoms: _397  and  _399
REMARK  170  A    between atoms: _399  and  _400
REMARK  171  A    between atoms: _399  and  _402
REMARK  172  A    between atoms: _402  and  _403
REMARK  173  A    between atoms: _403  and  _404
REMARK  174  A    between atoms: _409  and  _411
REMARK  175  A    between atoms: _411  and  _412
REMARK  176  A    between atoms: _411  and  _414
REMARK  177  A    between atoms: _414  and  _415
REMARK  178  A    between atoms: _418  and  _420
REMARK  179  A    between atoms: _420  and  _421
REMARK  180  A    between atoms: _420  and  _423
REMARK  181  A    between atoms: _423  and  _424
REMARK  182  A    between atoms: _424  and  _425
REMARK  183  A    between atoms: _428  and  _430
REMARK  184  A    between atoms: _430  and  _431
REMARK  185  A    between atoms: _430  and  _433
REMARK  186  A    between atoms: _434  and  _435
REMARK  187  A    between atoms: _435  and  _436
REMARK  188  A    between atoms: _445  and  _447
REMARK  189  A    between atoms: _447  and  _448
REMARK  190  A    between atoms: _447  and  _450
REMARK  191  A    between atoms: _450  and  _451
REMARK  192  A    between atoms: _454  and  _456
REMARK  193  A    between atoms: _456  and  _457
REMARK  194  A    between atoms: _456  and  _459
REMARK  195  A    between atoms: _459  and  _460
REMARK  196  A    between atoms: _460  and  _461
REMARK  197  A    between atoms: _464  and  _466
REMARK  198  A    between atoms: _466  and  _467
REMARK  199  A    between atoms: _466  and  _469
REMARK  200  A    between atoms: _469  and  _470
REMARK  201  A    between atoms: _476  and  _478
REMARK  202  A    between atoms: _478  and  _479
REMARK  203  A    between atoms: _478  and  _481
REMARK  204  A    between atoms: _481  and  _482
REMARK  205  A    between atoms: _485  and  _487
REMARK  206  A    between atoms: _487  and  _488
REMARK  207  A    between atoms: _487  and  _490
REMARK  208  A    between atoms: _490  and  _491
REMARK  209  A    between atoms: _491  and  _492
REMARK  210  A    between atoms: _497  and  _499
REMARK  211  A    between atoms: _499  and  _500
REMARK  212  A    between atoms: _499  and  _502
REMARK  213  A    between atoms: _502  and  _503
REMARK  214  A    between atoms: _503  and  _504
REMARK  215  A    between atoms: _504  and  _505
REMARK  216  A    between atoms: _505  and  _506
REMARK  217  A    between atoms: _510  and  _512
REMARK  218  A    between atoms: _512  and  _513
REMARK  219  A    between atoms: _512  and  _515
REMARK  220  A    between atoms: _515  and  _516
REMARK  221  A    between atoms: _519  and  _521
REMARK  222  A    between atoms: _521  and  _522
REMARK  223  A    between atoms: _521  and  _524
REMARK  224  A    between atoms: _524  and  _525
REMARK  225  A    between atoms: _525  and  _526
REMARK  226  A    between atoms: _526  and  _527
REMARK  227  A    between atoms: _527  and  _528
REMARK  228  A    between atoms: _532  and  _534
REMARK  229  A    between atoms: _534  and  _535
REMARK  230  A    between atoms: _534  and  _537
REMARK  231  A    between atoms: _537  and  _538
REMARK  232  A    between atoms: _538  and  _539
REMARK  233  A    between atoms: _539  and  _540
REMARK  234  A    between atoms: _549  and  _551
REMARK  235  A    between atoms: _551  and  _552
REMARK  236  A    between atoms: _551  and  _554
REMARK  237  A    between atoms: _554  and  _555
REMARK  238  A    between atoms: _558  and  _560
REMARK  239  A    between atoms: _560  and  _561
REMARK  240  A    between atoms: _563  and  _565
REMARK  241  A    between atoms: _565  and  _566
REMARK  242  A    between atoms: _565  and  _568
REMARK  243  A    between atoms: _568  and  _569
REMARK  244  A    between atoms: _569  and  _570
REMARK  245  A    between atoms: _573  and  _575
REMARK  246  A    between atoms: _575  and  _576
REMARK  247  A    between atoms: _575  and  _578
REMARK  248  A    between atoms: _578  and  _579
REMARK  249  A    between atoms: _584  and  _586
REMARK  250  A    between atoms: _586  and  _587
REMARK  251  A    between atoms: _589  and  _591
REMARK  252  A    between atoms: _591  and  _592
REMARK  253  A    between atoms: _591  and  _594
REMARK  254  A    between atoms: _594  and  _595
REMARK  255  A    between atoms: _598  and  _600
REMARK  256  A    between atoms: _600  and  _601
REMARK  257  A    between atoms: _603  and  _605
REMARK  258  A    between atoms: _605  and  _606
REMARK  259  A    between atoms: _605  and  _608
REMARK  260  A    between atoms: _608  and  _609
REMARK  261  A    between atoms: _609  and  _610
REMARK  262  A    between atoms: _610  and  _611
REMARK  263  A    between atoms: _611  and  _612
REMARK  264  A    between atoms: _616  and  _618
REMARK  265  A    between atoms: _618  and  _619
REMARK  266  A    between atoms: _618  and  _621
REMARK  267  A    between atoms: _621  and  _622
REMARK  268  A    between atoms: _625  and  _627
REMARK  269  A    between atoms: _627  and  _628
REMARK  270  A    between atoms: _627  and  _630
REMARK  271  A    between atoms: _630  and  _631
REMARK                            x       y       z     vdW  Elec       q    Type
REMARK                         _______ _______ _______ _____ _____    ______ ____
ROOT
ATOM      1  O   HOH     1      34.705 -12.518  54.171  0.00  0.00    +0.000 OA
ENDROOT
TORSDOF 0
REMARK  Name = ../refined-set-2016/2xbp/2xbp_pocket.pdb
REMARK  271 active torsions:
REMARK  status: ('A' for Active; 'I' for Inactive)
REMARK    1  A    between atoms: _1  and  _3
REMARK    2  A    between atoms: _3  and  _4
REMARK    3  A    between atoms: _3  and  _6
REMARK    4  A    between atoms: _6  and  _7
REMARK    5  A    between atoms: _7  and  _8
REMARK    6  A    between atoms: _8  and  _9
REMARK    7  A    between atoms: _9  and  _10
REMARK    8  A    between atoms: _14  and  _16
REMARK    9  A    between atoms: _16  and  _17
REMARK   10  A    between atoms: _16  and  _19
REMARK   11  A    between atoms: _19  and  _20
REMARK   12  A    between atoms: _20  and  _21
REMARK   13  A    between atoms: _21  and  _22
REMARK   14  A    between atoms: _22  and  _23
REMARK   15  A    between atoms: _27  and  _29
REMARK   16  A    between atoms: _29  and  _30
REMARK   17  A    between atoms: _29  and  _32
REMARK   18  A    between atoms: _32  and  _33
REMARK   19  A    between atoms: _36  and  _38
REMARK   20  A    between atoms: _38  and  _39
REMARK   21  A    between atoms: _38  and  _41
REMARK   22  A    between atoms: _41  and  _42
REMARK   23  A    between atoms: _45  and  _47
REMARK   24  A    between atoms: _47  and  _48
REMARK   25  A    between atoms: _47  and  _50
REMARK   26  A    between atoms: _53  and  _55
REMARK   27  A    between atoms: _55  and  _56
REMARK   28  A    between atoms: _58  and  _60
REMARK   29  A    between atoms: _60  and  _61
REMARK   30  A    between atoms: _60  and  _63
REMARK   31  A    between atoms: _64  and  _65
REMARK   32  A    between atoms: _67  and  _69
REMARK   33  A    between atoms: _69  and  _70
REMARK   34  A    between atoms: _69  and  _72
REMARK   35  A    between atoms: _72  and  _73
REMARK   36  A    between atoms: _76  and  _78
REMARK   37  A    between atoms: _78  and  _79
REMARK   38  A    between atoms: _78  and  _81
REMARK   39  A    between atoms: _84  and  _86
REMARK   40  A    between atoms: _86  and  _87
REMARK   41  A    between atoms: _86  and  _89
REMARK   42  A    between atoms: _89  and  _90
REMARK   43  A    between atoms: _93  and  _95
REMARK   44  A    between atoms: _95  and  _96
REMARK   45  A    between atoms: _95  and  _98
REMARK   46  A    between atoms: _98  and  _99
REMARK   47  A    between atoms: _99  and  _100
REMARK   48  A    between atoms: _103  and  _105
REMARK   49  A    between atoms: _105  and  _106
REMARK   50  A    between atoms: _105  and  _108
REMARK   51  A    between atoms: _108  and  _109
REMARK   52  A    between atoms: _112  and  _114
REMARK   53  A    between atoms: _114  and  _115
REMARK   54  A    between atoms: _114  and  _117
REMARK   55  A    between atoms: _120  and  _122
REMARK   56  A    between atoms: _122  and  _123
REMARK   57  A    between atoms: _122  and  _125
REMARK   58  A    between atoms: _128  and  _130
REMARK   59  A    between atoms: _130  and  _131
REMARK   60  A    between atoms: _130  and  _133
REMARK   61  A    between atoms: _134  and  _135
REMARK   62  A    between atoms: _138  and  _140
REMARK   63  A    between atoms: _140  and  _141
REMARK   64  A    between atoms: _140  and  _143
REMARK   65  A    between atoms: _143  and  _144
REMARK   66  A    between atoms: _144  and  _145
REMARK   67  A    between atoms: _150  and  _152
REMARK   68  A    between atoms: _152  and  _153
REMARK   69  A    between atoms: _152  and  _155
REMARK   70  A    between atoms: _155  and  _156
REMARK   71  A    between atoms: _159  and  _161
REMARK   72  A    between atoms: _161  and  _162
REMARK   73  A    between atoms: _161  and  _164
REMARK   74  A    between atoms: _164  and  _165
REMARK   75  A    between atoms: _168  and  _170
REMARK   76  A    between atoms: _170  and  _171
REMARK   77  A    between atoms: _170  and  _173
REMARK   78  A    between atoms: _173  and  _174
REMARK   79  A    between atoms: _174  and  _175
REMARK   80  A    between atoms: _175  and  _176
REMARK   81  A    between atoms: _185  and  _187
REMARK   82  A    between atoms: _187  and  _188
REMARK   83  A    between atoms: _187  and  _190
REMARK   84  A    between atoms: _190  and  _191
REMARK   85  A    between atoms: _194  and  _196
REMARK   86  A    between atoms: _196  and  _197
REMARK   87  A    between atoms: _196  and  _199
REMARK   88  A    between atoms: _199  and  _200
REMARK   89  A    between atoms: _200  and  _201
REMARK   90  A    between atoms: _201  and  _202
REMARK   91  A    between atoms: _211  and  _213
REMARK   92  A    between atoms: _213  and  _214
REMARK   93  A    between atoms: _213  and  _216
REMARK   94  A    between atoms: _216  and  _217
REMARK   95  A    between atoms: _220  and  _222
REMARK   96  A    between atoms: _222  and  _223
REMARK   97  A    between atoms: _225  and  _227
REMARK   98  A    between atoms: _227  and  _228
REMARK   99  A    between atoms: _227  and  _230
REMARK  100  A    between atoms: _230  and  _231
REMARK  101  A    between atoms: _231  and  _232
REMARK  102  A    between atoms: _235  and  _237
REMARK  103  A    between atoms: _237  and  _238
REMARK  104  A    between atoms: _237  and  _240
REMARK  105  A    between atoms: _240  and  _241
REMARK  106  A    between atoms: _244  and  _246
REMARK  107  A    between atoms: _246  and  _247
REMARK  108  A    between atoms: _250  and  _252
REMARK  109  A    between atoms: _252  and  _253
REMARK  110  A    between atoms: _252  and  _255
REMARK  111  A    between atoms: _255  and  _256
REMARK  112  A    between atoms: _261  and  _262
REMARK  113  A    between atoms: _261  and  _264
REMARK  114  A    between atoms: _264  and  _265
REMARK  115  A    between atoms: _267  and  _269
REMARK  116  A    between atoms: _269  and  _270
REMARK  117  A    between atoms: _273  and  _275
REMARK  118  A    between atoms: _275  and  _276
REMARK  119  A    between atoms: _275  and  _278
REMARK  120  A    between atoms: _278  and  _279
REMARK  121  A    between atoms: _282  and  _284
REMARK  122  A    between atoms: _284  and  _285
REMARK  123  A    between atoms: _284  and  _287
REMARK  124  A    between atoms: _287  and  _288
REMARK  125  A    between atoms: _291  and  _293
REMARK  126  A    between atoms: _293  and  _294
REMARK  127  A    between atoms: _293  and  _296
REMARK  128  A    between atoms: _296  and  _297
REMARK  129  A    between atoms: _297  and  _298
REMARK  130  A    between atoms: _298  and  _299
REMARK  131  A    between atoms: _308  and  _310
REMARK  132  A    between atoms: _310  and  _311
REMARK  133  A    between atoms: _310  and  _313
REMARK  134  A    between atoms: _316  and  _318
REMARK  135  A    between atoms: _318  and  _319
REMARK  136  A    between atoms: _318  and  _321
REMARK  137  A    between atoms: _321  and  _322
REMARK  138  A    between atoms: _322  and  _323
REMARK  139  A    between atoms: _323  and  _324
REMARK  140  A    between atoms: _333  and  _335
REMARK  141  A    between atoms: _335  and  _336
REMARK  142  A    between atoms: _338  and  _340
REMARK  143  A    between atoms: _340  and  _341
REMARK  144  A    between atoms: _340  and  _343
REMARK  145  A    between atoms: _343  and  _344
REMARK  146  A    between atoms: _350  and  _352
REMARK  147  A    between atoms: _352  and  _353
REMARK  148  A    between atoms: _353  and  _354
REMARK  149  A    between atoms: _353  and  _355
REMARK  150  A    between atoms: _354  and  MG_637
REMARK  151  A    between atoms: _355  and  _357
REMARK  152  A    between atoms: _357  and  _358
REMARK  153  A    between atoms: _357  and  _360
REMARK  154  A    between atoms: _360  and  _361
REMARK  155  A    between atoms: _361  and  _362
REMARK  156  A    between atoms: _362  and  _363
REMARK  157  A    between atoms: _372  and  _374
REMARK  158  A    between atoms: _374  and  _375
REMARK  159  A    between atoms: _374  and  _377
REMARK  160  A    between atoms: _377  and  _378
REMARK  161  A    between atoms: _378  and  _379
REMARK  162  A    between atoms: _384  and  _386
REMARK  163  A    between atoms: _386  and  _387
REMARK  164  A    between atoms: _386  and  _389
REMARK  165  A    between atoms: _389  and  _390
REMARK  166  A    between atoms: _390  and  _391
REMARK  167  A    between atoms: _391  and  _392
REMARK  168  A    between atoms: _392  and  _393
REMARK  169  A    between atoms: _397  and  _399
REMARK  170  A    between atoms: _399  and  _400
REMARK  171  A    between atoms: _399  and  _402
REMARK  172  A    between atoms: _402  and  _403
REMARK  173  A    between atoms: _403  and  _404
REMARK  174  A    between atoms: _409  and  _411
REMARK  175  A    between atoms: _411  and  _412
REMARK  176  A    between atoms: _411  and  _414
REMARK  177  A    between atoms: _414  and  _415
REMARK  178  A    between atoms: _418  and  _420
REMARK  179  A    between atoms: _420  and  _421
REMARK  180  A    between atoms: _420  and  _423
REMARK  181  A    between atoms: _423  and  _424
REMARK  182  A    between atoms: _424  and  _425
REMARK  183  A    between atoms: _428  and  _430
REMARK  184  A    between atoms: _430  and  _431
REMARK  185  A    between atoms: _430  and  _433
REMARK  186  A    between atoms: _434  and  _435
REMARK  187  A    between atoms: _435  and  _436
REMARK  188  A    between atoms: _445  and  _447
REMARK  189  A    between atoms: _447  and  _448
REMARK  190  A    between atoms: _447  and  _450
REMARK  191  A    between atoms: _450  and  _451
REMARK  192  A    between atoms: _454  and  _456
REMARK  193  A    between atoms: _456  and  _457
REMARK  194  A    between atoms: _456  and  _459
REMARK  195  A    between atoms: _459  and  _460
REMARK  196  A    between atoms: _460  and  _461
REMARK  197  A    between atoms: _464  and  _466
REMARK  198  A    between atoms: _466  and  _467
REMARK  199  A    between atoms: _466  and  _469
REMARK  200  A    between atoms: _469  and  _470
REMARK  201  A    between atoms: _476  and  _478
REMARK  202  A    between atoms: _478  and  _479
REMARK  203  A    between atoms: _478  and  _481
REMARK  204  A    between atoms: _481  and  _482
REMARK  205  A    between atoms: _485  and  _487
REMARK  206  A    between atoms: _487  and  _488
REMARK  207  A    between atoms: _487  and  _490
REMARK  208  A    between atoms: _490  and  _491
REMARK  209  A    between atoms: _491  and  _492
REMARK  210  A    between atoms: _497  and  _499
REMARK  211  A    between atoms: _499  and  _500
REMARK  212  A    between atoms: _499  and  _502
REMARK  213  A    between atoms: _502  and  _503
REMARK  214  A    between atoms: _503  and  _504
REMARK  215  A    between atoms: _504  and  _505
REMARK  216  A    between atoms: _505  and  _506
REMARK  217  A    between atoms: _510  and  _512
REMARK  218  A    between atoms: _512  and  _513
REMARK  219  A    between atoms: _512  and  _515
REMARK  220  A    between atoms: _515  and  _516
REMARK  221  A    between atoms: _519  and  _521
REMARK  222  A    between atoms: _521  and  _522
REMARK  223  A    between atoms: _521  and  _524
REMARK  224  A    between atoms: _524  and  _525
REMARK  225  A    between atoms: _525  and  _526
REMARK  226  A    between atoms: _526  and  _527
REMARK  227  A    between atoms: _527  and  _528
REMARK  228  A    between atoms: _532  and  _534
REMARK  229  A    between atoms: _534  and  _535
REMARK  230  A    between atoms: _534  and  _537
REMARK  231  A    between atoms: _537  and  _538
REMARK  232  A    between atoms: _538  and  _539
REMARK  233  A    between atoms: _539  and  _540
REMARK  234  A    between atoms: _549  and  _551
REMARK  235  A    between atoms: _551  and  _552
REMARK  236  A    between atoms: _551  and  _554
REMARK  237  A    between atoms: _554  and  _555
REMARK  238  A    between atoms: _558  and  _560
REMARK  239  A    between atoms: _560  and  _561
REMARK  240  A    between atoms: _563  and  _565
REMARK  241  A    between atoms: _565  and  _566
REMARK  242  A    between atoms: _565  and  _568
REMARK  243  A    between atoms: _568  and  _569
REMARK  244  A    between atoms: _569  and  _570
REMARK  245  A    between atoms: _573  and  _575
REMARK  246  A    between atoms: _575  and  _576
REMARK  247  A    between atoms: _575  and  _578
REMARK  248  A    between atoms: _578  and  _579
REMARK  249  A    between atoms: _584  and  _586
REMARK  250  A    between atoms: _586  and  _587
REMARK  251  A    between atoms: _589  and  _591
REMARK  252  A    between atoms: _591  and  _592
REMARK  253  A    between atoms: _591  and  _594
REMARK  254  A    between atoms: _594  and  _595
REMARK  255  A    between atoms: _598  and  _600
REMARK  256  A    between atoms: _600  and  _601
REMARK  257  A    between atoms: _603  and  _605
REMARK  258  A    between atoms: _605  and  _606
REMARK  259  A    between atoms: _605  and  _608
REMARK  260  A    between atoms: _608  and  _609
REMARK  261  A    between atoms: _609  and  _610
REMARK  262  A    between atoms: _610  and  _611
REMARK  263  A    between atoms: _611  and  _612
REMARK  264  A    between atoms: _616  and  _618
REMARK  265  A    between atoms: _618  and  _619
REMARK  266  A    between atoms: _618  and  _621
REMARK  267  A    between atoms: _621  and  _622
REMARK  268  A    between atoms: _625  and  _627
REMARK  269  A    between atoms: _627  and  _628
REMARK  270  A    between atoms: _627  and  _630
REMARK  271  A    between atoms: _630  and  _631
REMARK                            x       y       z     vdW  Elec       q    Type
REMARK                         _______ _______ _______ _____ _____    ______ ____
ROOT
ATOM      1  O   HOH     1      35.056  -7.115  52.781  0.00  0.00    +0.000 OA
ENDROOT
TORSDOF 0
REMARK  Name = ../refined-set-2016/2xbp/2xbp_pocket.pdb
REMARK  271 active torsions:
REMARK  status: ('A' for Active; 'I' for Inactive)
REMARK    1  A    between atoms: _1  and  _3
REMARK    2  A    between atoms: _3  and  _4
REMARK    3  A    between atoms: _3  and  _6
REMARK    4  A    between atoms: _6  and  _7
REMARK    5  A    between atoms: _7  and  _8
REMARK    6  A    between atoms: _8  and  _9
REMARK    7  A    between atoms: _9  and  _10
REMARK    8  A    between atoms: _14  and  _16
REMARK    9  A    between atoms: _16  and  _17
REMARK   10  A    between atoms: _16  and  _19
REMARK   11  A    between atoms: _19  and  _20
REMARK   12  A    between atoms: _20  and  _21
REMARK   13  A    between atoms: _21  and  _22
REMARK   14  A    between atoms: _22  and  _23
REMARK   15  A    between atoms: _27  and  _29
REMARK   16  A    between atoms: _29  and  _30
REMARK   17  A    between atoms: _29  and  _32
REMARK   18  A    between atoms: _32  and  _33
REMARK   19  A    between atoms: _36  and  _38
REMARK   20  A    between atoms: _38  and  _39
REMARK   21  A    between atoms: _38  and  _41
REMARK   22  A    between atoms: _41  and  _42
REMARK   23  A    between atoms: _45  and  _47
REMARK   24  A    between atoms: _47  and  _48
REMARK   25  A    between atoms: _47  and  _50
REMARK   26  A    between atoms: _53  and  _55
REMARK   27  A    between atoms: _55  and  _56
REMARK   28  A    between atoms: _58  and  _60
REMARK   29  A    between atoms: _60  and  _61
REMARK   30  A    between atoms: _60  and  _63
REMARK   31  A    between atoms: _64  and  _65
REMARK   32  A    between atoms: _67  and  _69
REMARK   33  A    between atoms: _69  and  _70
REMARK   34  A    between atoms: _69  and  _72
REMARK   35  A    between atoms: _72  and  _73
REMARK   36  A    between atoms: _76  and  _78
REMARK   37  A    between atoms: _78  and  _79
REMARK   38  A    between atoms: _78  and  _81
REMARK   39  A    between atoms: _84  and  _86
REMARK   40  A    between atoms: _86  and  _87
REMARK   41  A    between atoms: _86  and  _89
REMARK   42  A    between atoms: _89  and  _90
REMARK   43  A    between atoms: _93  and  _95
REMARK   44  A    between atoms: _95  and  _96
REMARK   45  A    between atoms: _95  and  _98
REMARK   46  A    between atoms: _98  and  _99
REMARK   47  A    between atoms: _99  and  _100
REMARK   48  A    between atoms: _103  and  _105
REMARK   49  A    between atoms: _105  and  _106
REMARK   50  A    between atoms: _105  and  _108
REMARK   51  A    between atoms: _108  and  _109
REMARK   52  A    between atoms: _112  and  _114
REMARK   53  A    between atoms: _114  and  _115
REMARK   54  A    between atoms: _114  and  _117
REMARK   55  A    between atoms: _120  and  _122
REMARK   56  A    between atoms: _122  and  _123
REMARK   57  A    between atoms: _122  and  _125
REMARK   58  A    between atoms: _128  and  _130
REMARK   59  A    between atoms: _130  and  _131
REMARK   60  A    between atoms: _130  and  _133
REMARK   61  A    between atoms: _134  and  _135
REMARK   62  A    between atoms: _138  and  _140
REMARK   63  A    between atoms: _140  and  _141
REMARK   64  A    between atoms: _140  and  _143
REMARK   65  A    between atoms: _143  and  _144
REMARK   66  A    between atoms: _144  and  _145
REMARK   67  A    between atoms: _150  and  _152
REMARK   68  A    between atoms: _152  and  _153
REMARK   69  A    between atoms: _152  and  _155
REMARK   70  A    between atoms: _155  and  _156
REMARK   71  A    between atoms: _159  and  _161
REMARK   72  A    between atoms: _161  and  _162
REMARK   73  A    between atoms: _161  and  _164
REMARK   74  A    between atoms: _164  and  _165
REMARK   75  A    between atoms: _168  and  _170
REMARK   76  A    between atoms: _170  and  _171
REMARK   77  A    between atoms: _170  and  _173
REMARK   78  A    between atoms: _173  and  _174
REMARK   79  A    between atoms: _174  and  _175
REMARK   80  A    between atoms: _175  and  _176
REMARK   81  A    between atoms: _185  and  _187
REMARK   82  A    between atoms: _187  and  _188
REMARK   83  A    between atoms: _187  and  _190
REMARK   84  A    between atoms: _190  and  _191
REMARK   85  A    between atoms: _194  and  _196
REMARK   86  A    between atoms: _196  and  _197
REMARK   87  A    between atoms: _196  and  _199
REMARK   88  A    between atoms: _199  and  _200
REMARK   89  A    between atoms: _200  and  _201
REMARK   90  A    between atoms: _201  and  _202
REMARK   91  A    between atoms: _211  and  _213
REMARK   92  A    between atoms: _213  and  _214
REMARK   93  A    between atoms: _213  and  _216
REMARK   94  A    between atoms: _216  and  _217
REMARK   95  A    between atoms: _220  and  _222
REMARK   96  A    between atoms: _222  and  _223
REMARK   97  A    between atoms: _225  and  _227
REMARK   98  A    between atoms: _227  and  _228
REMARK   99  A    between atoms: _227  and  _230
REMARK  100  A    between atoms: _230  and  _231
REMARK  101  A    between atoms: _231  and  _232
REMARK  102  A    between atoms: _235  and  _237
REMARK  103  A    between atoms: _237  and  _238
REMARK  104  A    between atoms: _237  and  _240
REMARK  105  A    between atoms: _240  and  _241
REMARK  106  A    between atoms: _244  and  _246
REMARK  107  A    between atoms: _246  and  _247
REMARK  108  A    between atoms: _250  and  _252
REMARK  109  A    between atoms: _252  and  _253
REMARK  110  A    between atoms: _252  and  _255
REMARK  111  A    between atoms: _255  and  _256
REMARK  112  A    between atoms: _261  and  _262
REMARK  113  A    between atoms: _261  and  _264
REMARK  114  A    between atoms: _264  and  _265
REMARK  115  A    between atoms: _267  and  _269
REMARK  116  A    between atoms: _269  and  _270
REMARK  117  A    between atoms: _273  and  _275
REMARK  118  A    between atoms: _275  and  _276
REMARK  119  A    between atoms: _275  and  _278
REMARK  120  A    between atoms: _278  and  _279
REMARK  121  A    between atoms: _282  and  _284
REMARK  122  A    between atoms: _284  and  _285
REMARK  123  A    between atoms: _284  and  _287
REMARK  124  A    between atoms: _287  and  _288
REMARK  125  A    between atoms: _291  and  _293
REMARK  126  A    between atoms: _293  and  _294
REMARK  127  A    between atoms: _293  and  _296
REMARK  128  A    between atoms: _296  and  _297
REMARK  129  A    between atoms: _297  and  _298
REMARK  130  A    between atoms: _298  and  _299
REMARK  131  A    between atoms: _308  and  _310
REMARK  132  A    between atoms: _310  and  _311
REMARK  133  A    between atoms: _310  and  _313
REMARK  134  A    between atoms: _316  and  _318
REMARK  135  A    between atoms: _318  and  _319
REMARK  136  A    between atoms: _318  and  _321
REMARK  137  A    between atoms: _321  and  _322
REMARK  138  A    between atoms: _322  and  _323
REMARK  139  A    between atoms: _323  and  _324
REMARK  140  A    between atoms: _333  and  _335
REMARK  141  A    between atoms: _335  and  _336
REMARK  142  A    between atoms: _338  and  _340
REMARK  143  A    between atoms: _340  and  _341
REMARK  144  A    between atoms: _340  and  _343
REMARK  145  A    between atoms: _343  and  _344
REMARK  146  A    between atoms: _350  and  _352
REMARK  147  A    between atoms: _352  and  _353
REMARK  148  A    between atoms: _353  and  _354
REMARK  149  A    between atoms: _353  and  _355
REMARK  150  A    between atoms: _354  and  MG_637
REMARK  151  A    between atoms: _355  and  _357
REMARK  152  A    between atoms: _357  and  _358
REMARK  153  A    between atoms: _357  and  _360
REMARK  154  A    between atoms: _360  and  _361
REMARK  155  A    between atoms: _361  and  _362
REMARK  156  A    between atoms: _362  and  _363
REMARK  157  A    between atoms: _372  and  _374
REMARK  158  A    between atoms: _374  and  _375
REMARK  159  A    between atoms: _374  and  _377
REMARK  160  A    between atoms: _377  and  _378
REMARK  161  A    between atoms: _378  and  _379
REMARK  162  A    between atoms: _384  and  _386
REMARK  163  A    between atoms: _386  and  _387
REMARK  164  A    between atoms: _386  and  _389
REMARK  165  A    between atoms: _389  and  _390
REMARK  166  A    between atoms: _390  and  _391
REMARK  167  A    between atoms: _391  and  _392
REMARK  168  A    between atoms: _392  and  _393
REMARK  169  A    between atoms: _397  and  _399
REMARK  170  A    between atoms: _399  and  _400
REMARK  171  A    between atoms: _399  and  _402
REMARK  172  A    between atoms: _402  and  _403
REMARK  173  A    between atoms: _403  and  _404
REMARK  174  A    between atoms: _409  and  _411
REMARK  175  A    between atoms: _411  and  _412
REMARK  176  A    between atoms: _411  and  _414
REMARK  177  A    between atoms: _414  and  _415
REMARK  178  A    between atoms: _418  and  _420
REMARK  179  A    between atoms: _420  and  _421
REMARK  180  A    between atoms: _420  and  _423
REMARK  181  A    between atoms: _423  and  _424
REMARK  182  A    between atoms: _424  and  _425
REMARK  183  A    between atoms: _428  and  _430
REMARK  184  A    between atoms: _430  and  _431
REMARK  185  A    between atoms: _430  and  _433
REMARK  186  A    between atoms: _434  and  _435
REMARK  187  A    between atoms: _435  and  _436
REMARK  188  A    between atoms: _445  and  _447
REMARK  189  A    between atoms: _447  and  _448
REMARK  190  A    between atoms: _447  and  _450
REMARK  191  A    between atoms: _450  and  _451
REMARK  192  A    between atoms: _454  and  _456
REMARK  193  A    between atoms: _456  and  _457
REMARK  194  A    between atoms: _456  and  _459
REMARK  195  A    between atoms: _459  and  _460
REMARK  196  A    between atoms: _460  and  _461
REMARK  197  A    between atoms: _464  and  _466
REMARK  198  A    between atoms: _466  and  _467
REMARK  199  A    between atoms: _466  and  _469
REMARK  200  A    between atoms: _469  and  _470
REMARK  201  A    between atoms: _476  and  _478
REMARK  202  A    between atoms: _478  and  _479
REMARK  203  A    between atoms: _478  and  _481
REMARK  204  A    between atoms: _481  and  _482
REMARK  205  A    between atoms: _485  and  _487
REMARK  206  A    between atoms: _487  and  _488
REMARK  207  A    between atoms: _487  and  _490
REMARK  208  A    between atoms: _490  and  _491
REMARK  209  A    between atoms: _491  and  _492
REMARK  210  A    between atoms: _497  and  _499
REMARK  211  A    between atoms: _499  and  _500
REMARK  212  A    between atoms: _499  and  _502
REMARK  213  A    between atoms: _502  and  _503
REMARK  214  A    between atoms: _503  and  _504
REMARK  215  A    between atoms: _504  and  _505
REMARK  216  A    between atoms: _505  and  _506
REMARK  217  A    between atoms: _510  and  _512
REMARK  218  A    between atoms: _512  and  _513
REMARK  219  A    between atoms: _512  and  _515
REMARK  220  A    between atoms: _515  and  _516
REMARK  221  A    between atoms: _519  and  _521
REMARK  222  A    between atoms: _521  and  _522
REMARK  223  A    between atoms: _521  and  _524
REMARK  224  A    between atoms: _524  and  _525
REMARK  225  A    between atoms: _525  and  _526
REMARK  226  A    between atoms: _526  and  _527
REMARK  227  A    between atoms: _527  and  _528
REMARK  228  A    between atoms: _532  and  _534
REMARK  229  A    between atoms: _534  and  _535
REMARK  230  A    between atoms: _534  and  _537
REMARK  231  A    between atoms: _537  and  _538
REMARK  232  A    between atoms: _538  and  _539
REMARK  233  A    between atoms: _539  and  _540
REMARK  234  A    between atoms: _549  and  _551
REMARK  235  A    between atoms: _551  and  _552
REMARK  236  A    between atoms: _551  and  _554
REMARK  237  A    between atoms: _554  and  _555
REMARK  238  A    between atoms: _558  and  _560
REMARK  239  A    between atoms: _560  and  _561
REMARK  240  A    between atoms: _563  and  _565
REMARK  241  A    between atoms: _565  and  _566
REMARK  242  A    between atoms: _565  and  _568
REMARK  243  A    between atoms: _568  and  _569
REMARK  244  A    between atoms: _569  and  _570
REMARK  245  A    between atoms: _573  and  _575
REMARK  246  A    between atoms: _575  and  _576
REMARK  247  A    between atoms: _575  and  _578
REMARK  248  A    between atoms: _578  and  _579
REMARK  249  A    between atoms: _584  and  _586
REMARK  250  A    between atoms: _586  and  _587
REMARK  251  A    between atoms: _589  and  _591
REMARK  252  A    between atoms: _591  and  _592
REMARK  253  A    between atoms: _591  and  _594
REMARK  254  A    between atoms: _594  and  _595
REMARK  255  A    between atoms: _598  and  _600
REMARK  256  A    between atoms: _600  and  _601
REMARK  257  A    between atoms: _603  and  _605
REMARK  258  A    between atoms: _605  and  _606
REMARK  259  A    between atoms: _605  and  _608
REMARK  260  A    between atoms: _608  and  _609
REMARK  261  A    between atoms: _609  and  _610
REMARK  262  A    between atoms: _610  and  _611
REMARK  263  A    between atoms: _611  and  _612
REMARK  264  A    between atoms: _616  and  _618
REMARK  265  A    between atoms: _618  and  _619
REMARK  266  A    between atoms: _618  and  _621
REMARK  267  A    between atoms: _621  and  _622
REMARK  268  A    between atoms: _625  and  _627
REMARK  269  A    between atoms: _627  and  _628
REMARK  270  A    between atoms: _627  and  _630
REMARK  271  A    between atoms: _630  and  _631
REMARK                            x       y       z     vdW  Elec       q    Type
REMARK                         _______ _______ _______ _____ _____    ______ ____
ROOT
ATOM      1  O   HOH     1      38.457 -14.364  64.664  0.00  0.00    +0.000 OA
ENDROOT
TORSDOF 0
REMARK  Name = ../refined-set-2016/2xbp/2xbp_pocket.pdb
REMARK  271 active torsions:
REMARK  status: ('A' for Active; 'I' for Inactive)
REMARK    1  A    between atoms: _1  and  _3
REMARK    2  A    between atoms: _3  and  _4
REMARK    3  A    between atoms: _3  and  _6
REMARK    4  A    between atoms: _6  and  _7
REMARK    5  A    between atoms: _7  and  _8
REMARK    6  A    between atoms: _8  and  _9
REMARK    7  A    between atoms: _9  and  _10
REMARK    8  A    between atoms: _14  and  _16
REMARK    9  A    between atoms: _16  and  _17
REMARK   10  A    between atoms: _16  and  _19
REMARK   11  A    between atoms: _19  and  _20
REMARK   12  A    between atoms: _20  and  _21
REMARK   13  A    between atoms: _21  and  _22
REMARK   14  A    between atoms: _22  and  _23
REMARK   15  A    between atoms: _27  and  _29
REMARK   16  A    between atoms: _29  and  _30
REMARK   17  A    between atoms: _29  and  _32
REMARK   18  A    between atoms: _32  and  _33
REMARK   19  A    between atoms: _36  and  _38
REMARK   20  A    between atoms: _38  and  _39
REMARK   21  A    between atoms: _38  and  _41
REMARK   22  A    between atoms: _41  and  _42
REMARK   23  A    between atoms: _45  and  _47
REMARK   24  A    between atoms: _47  and  _48
REMARK   25  A    between atoms: _47  and  _50
REMARK   26  A    between atoms: _53  and  _55
REMARK   27  A    between atoms: _55  and  _56
REMARK   28  A    between atoms: _58  and  _60
REMARK   29  A    between atoms: _60  and  _61
REMARK   30  A    between atoms: _60  and  _63
REMARK   31  A    between atoms: _64  and  _65
REMARK   32  A    between atoms: _67  and  _69
REMARK   33  A    between atoms: _69  and  _70
REMARK   34  A    between atoms: _69  and  _72
REMARK   35  A    between atoms: _72  and  _73
REMARK   36  A    between atoms: _76  and  _78
REMARK   37  A    between atoms: _78  and  _79
REMARK   38  A    between atoms: _78  and  _81
REMARK   39  A    between atoms: _84  and  _86
REMARK   40  A    between atoms: _86  and  _87
REMARK   41  A    between atoms: _86  and  _89
REMARK   42  A    between atoms: _89  and  _90
REMARK   43  A    between atoms: _93  and  _95
REMARK   44  A    between atoms: _95  and  _96
REMARK   45  A    between atoms: _95  and  _98
REMARK   46  A    between atoms: _98  and  _99
REMARK   47  A    between atoms: _99  and  _100
REMARK   48  A    between atoms: _103  and  _105
REMARK   49  A    between atoms: _105  and  _106
REMARK   50  A    between atoms: _105  and  _108
REMARK   51  A    between atoms: _108  and  _109
REMARK   52  A    between atoms: _112  and  _114
REMARK   53  A    between atoms: _114  and  _115
REMARK   54  A    between atoms: _114  and  _117
REMARK   55  A    between atoms: _120  and  _122
REMARK   56  A    between atoms: _122  and  _123
REMARK   57  A    between atoms: _122  and  _125
REMARK   58  A    between atoms: _128  and  _130
REMARK   59  A    between atoms: _130  and  _131
REMARK   60  A    between atoms: _130  and  _133
REMARK   61  A    between atoms: _134  and  _135
REMARK   62  A    between atoms: _138  and  _140
REMARK   63  A    between atoms: _140  and  _141
REMARK   64  A    between atoms: _140  and  _143
REMARK   65  A    between atoms: _143  and  _144
REMARK   66  A    between atoms: _144  and  _145
REMARK   67  A    between atoms: _150  and  _152
REMARK   68  A    between atoms: _152  and  _153
REMARK   69  A    between atoms: _152  and  _155
REMARK   70  A    between atoms: _155  and  _156
REMARK   71  A    between atoms: _159  and  _161
REMARK   72  A    between atoms: _161  and  _162
REMARK   73  A    between atoms: _161  and  _164
REMARK   74  A    between atoms: _164  and  _165
REMARK   75  A    between atoms: _168  and  _170
REMARK   76  A    between atoms: _170  and  _171
REMARK   77  A    between atoms: _170  and  _173
REMARK   78  A    between atoms: _173  and  _174
REMARK   79  A    between atoms: _174  and  _175
REMARK   80  A    between atoms: _175  and  _176
REMARK   81  A    between atoms: _185  and  _187
REMARK   82  A    between atoms: _187  and  _188
REMARK   83  A    between atoms: _187  and  _190
REMARK   84  A    between atoms: _190  and  _191
REMARK   85  A    between atoms: _194  and  _196
REMARK   86  A    between atoms: _196  and  _197
REMARK   87  A    between atoms: _196  and  _199
REMARK   88  A    between atoms: _199  and  _200
REMARK   89  A    between atoms: _200  and  _201
REMARK   90  A    between atoms: _201  and  _202
REMARK   91  A    between atoms: _211  and  _213
REMARK   92  A    between atoms: _213  and  _214
REMARK   93  A    between atoms: _213  and  _216
REMARK   94  A    between atoms: _216  and  _217
REMARK   95  A    between atoms: _220  and  _222
REMARK   96  A    between atoms: _222  and  _223
REMARK   97  A    between atoms: _225  and  _227
REMARK   98  A    between atoms: _227  and  _228
REMARK   99  A    between atoms: _227  and  _230
REMARK  100  A    between atoms: _230  and  _231
REMARK  101  A    between atoms: _231  and  _232
REMARK  102  A    between atoms: _235  and  _237
REMARK  103  A    between atoms: _237  and  _238
REMARK  104  A    between atoms: _237  and  _240
REMARK  105  A    between atoms: _240  and  _241
REMARK  106  A    between atoms: _244  and  _246
REMARK  107  A    between atoms: _246  and  _247
REMARK  108  A    between atoms: _250  and  _252
REMARK  109  A    between atoms: _252  and  _253
REMARK  110  A    between atoms: _252  and  _255
REMARK  111  A    between atoms: _255  and  _256
REMARK  112  A    between atoms: _261  and  _262
REMARK  113  A    between atoms: _261  and  _264
REMARK  114  A    between atoms: _264  and  _265
REMARK  115  A    between atoms: _267  and  _269
REMARK  116  A    between atoms: _269  and  _270
REMARK  117  A    between atoms: _273  and  _275
REMARK  118  A    between atoms: _275  and  _276
REMARK  119  A    between atoms: _275  and  _278
REMARK  120  A    between atoms: _278  and  _279
REMARK  121  A    between atoms: _282  and  _284
REMARK  122  A    between atoms: _284  and  _285
REMARK  123  A    between atoms: _284  and  _287
REMARK  124  A    between atoms: _287  and  _288
REMARK  125  A    between atoms: _291  and  _293
REMARK  126  A    between atoms: _293  and  _294
REMARK  127  A    between atoms: _293  and  _296
REMARK  128  A    between atoms: _296  and  _297
REMARK  129  A    between atoms: _297  and  _298
REMARK  130  A    between atoms: _298  and  _299
REMARK  131  A    between atoms: _308  and  _310
REMARK  132  A    between atoms: _310  and  _311
REMARK  133  A    between atoms: _310  and  _313
REMARK  134  A    between atoms: _316  and  _318
REMARK  135  A    between atoms: _318  and  _319
REMARK  136  A    between atoms: _318  and  _321
REMARK  137  A    between atoms: _321  and  _322
REMARK  138  A    between atoms: _322  and  _323
REMARK  139  A    between atoms: _323  and  _324
REMARK  140  A    between atoms: _333  and  _335
REMARK  141  A    between atoms: _335  and  _336
REMARK  142  A    between atoms: _338  and  _340
REMARK  143  A    between atoms: _340  and  _341
REMARK  144  A    between atoms: _340  and  _343
REMARK  145  A    between atoms: _343  and  _344
REMARK  146  A    between atoms: _350  and  _352
REMARK  147  A    between atoms: _352  and  _353
REMARK  148  A    between atoms: _353  and  _354
REMARK  149  A    between atoms: _353  and  _355
REMARK  150  A    between atoms: _354  and  MG_637
REMARK  151  A    between atoms: _355  and  _357
REMARK  152  A    between atoms: _357  and  _358
REMARK  153  A    between atoms: _357  and  _360
REMARK  154  A    between atoms: _360  and  _361
REMARK  155  A    between atoms: _361  and  _362
REMARK  156  A    between atoms: _362  and  _363
REMARK  157  A    between atoms: _372  and  _374
REMARK  158  A    between atoms: _374  and  _375
REMARK  159  A    between atoms: _374  and  _377
REMARK  160  A    between atoms: _377  and  _378
REMARK  161  A    between atoms: _378  and  _379
REMARK  162  A    between atoms: _384  and  _386
REMARK  163  A    between atoms: _386  and  _387
REMARK  164  A    between atoms: _386  and  _389
REMARK  165  A    between atoms: _389  and  _390
REMARK  166  A    between atoms: _390  and  _391
REMARK  167  A    between atoms: _391  and  _392
REMARK  168  A    between atoms: _392  and  _393
REMARK  169  A    between atoms: _397  and  _399
REMARK  170  A    between atoms: _399  and  _400
REMARK  171  A    between atoms: _399  and  _402
REMARK  172  A    between atoms: _402  and  _403
REMARK  173  A    between atoms: _403  and  _404
REMARK  174  A    between atoms: _409  and  _411
REMARK  175  A    between atoms: _411  and  _412
REMARK  176  A    between atoms: _411  and  _414
REMARK  177  A    between atoms: _414  and  _415
REMARK  178  A    between atoms: _418  and  _420
REMARK  179  A    between atoms: _420  and  _421
REMARK  180  A    between atoms: _420  and  _423
REMARK  181  A    between atoms: _423  and  _424
REMARK  182  A    between atoms: _424  and  _425
REMARK  183  A    between atoms: _428  and  _430
REMARK  184  A    between atoms: _430  and  _431
REMARK  185  A    between atoms: _430  and  _433
REMARK  186  A    between atoms: _434  and  _435
REMARK  187  A    between atoms: _435  and  _436
REMARK  188  A    between atoms: _445  and  _447
REMARK  189  A    between atoms: _447  and  _448
REMARK  190  A    between atoms: _447  and  _450
REMARK  191  A    between atoms: _450  and  _451
REMARK  192  A    between atoms: _454  and  _456
REMARK  193  A    between atoms: _456  and  _457
REMARK  194  A    between atoms: _456  and  _459
REMARK  195  A    between atoms: _459  and  _460
REMARK  196  A    between atoms: _460  and  _461
REMARK  197  A    between atoms: _464  and  _466
REMARK  198  A    between atoms: _466  and  _467
REMARK  199  A    between atoms: _466  and  _469
REMARK  200  A    between atoms: _469  and  _470
REMARK  201  A    between atoms: _476  and  _478
REMARK  202  A    between atoms: _478  and  _479
REMARK  203  A    between atoms: _478  and  _481
REMARK  204  A    between atoms: _481  and  _482
REMARK  205  A    between atoms: _485  and  _487
REMARK  206  A    between atoms: _487  and  _488
REMARK  207  A    between atoms: _487  and  _490
REMARK  208  A    between atoms: _490  and  _491
REMARK  209  A    between atoms: _491  and  _492
REMARK  210  A    between atoms: _497  and  _499
REMARK  211  A    between atoms: _499  and  _500
REMARK  212  A    between atoms: _499  and  _502
REMARK  213  A    between atoms: _502  and  _503
REMARK  214  A    between atoms: _503  and  _504
REMARK  215  A    between atoms: _504  and  _505
REMARK  216  A    between atoms: _505  and  _506
REMARK  217  A    between atoms: _510  and  _512
REMARK  218  A    between atoms: _512  and  _513
REMARK  219  A    between atoms: _512  and  _515
REMARK  220  A    between atoms: _515  and  _516
REMARK  221  A    between atoms: _519  and  _521
REMARK  222  A    between atoms: _521  and  _522
REMARK  223  A    between atoms: _521  and  _524
REMARK  224  A    between atoms: _524  and  _525
REMARK  225  A    between atoms: _525  and  _526
REMARK  226  A    between atoms: _526  and  _527
REMARK  227  A    between atoms: _527  and  _528
REMARK  228  A    between atoms: _532  and  _534
REMARK  229  A    between atoms: _534  and  _535
REMARK  230  A    between atoms: _534  and  _537
REMARK  231  A    between atoms: _537  and  _538
REMARK  232  A    between atoms: _538  and  _539
REMARK  233  A    between atoms: _539  and  _540
REMARK  234  A    between atoms: _549  and  _551
REMARK  235  A    between atoms: _551  and  _552
REMARK  236  A    between atoms: _551  and  _554
REMARK  237  A    between atoms: _554  and  _555
REMARK  238  A    between atoms: _558  and  _560
REMARK  239  A    between atoms: _560  and  _561
REMARK  240  A    between atoms: _563  and  _565
REMARK  241  A    between atoms: _565  and  _566
REMARK  242  A    between atoms: _565  and  _568
REMARK  243  A    between atoms: _568  and  _569
REMARK  244  A    between atoms: _569  and  _570
REMARK  245  A    between atoms: _573  and  _575
REMARK  246  A    between atoms: _575  and  _576
REMARK  247  A    between atoms: _575  and  _578
REMARK  248  A    between atoms: _578  and  _579
REMARK  249  A    between atoms: _584  and  _586
REMARK  250  A    between atoms: _586  and  _587
REMARK  251  A    between atoms: _589  and  _591
REMARK  252  A    between atoms: _591  and  _592
REMARK  253  A    between atoms: _591  and  _594
REMARK  254  A    between atoms: _594  and  _595
REMARK  255  A    between atoms: _598  and  _600
REMARK  256  A    between atoms: _600  and  _601
REMARK  257  A    between atoms: _603  and  _605
REMARK  258  A    between atoms: _605  and  _606
REMARK  259  A    between atoms: _605  and  _608
REMARK  260  A    between atoms: _608  and  _609
REMARK  261  A    between atoms: _609  and  _610
REMARK  262  A    between atoms: _610  and  _611
REMARK  263  A    between atoms: _611  and  _612
REMARK  264  A    between atoms: _616  and  _618
REMARK  265  A    between atoms: _618  and  _619
REMARK  266  A    between atoms: _618  and  _621
REMARK  267  A    between atoms: _621  and  _622
REMARK  268  A    between atoms: _625  and  _627
REMARK  269  A    between atoms: _627  and  _628
REMARK  270  A    between atoms: _627  and  _630
REMARK  271  A    between atoms: _630  and  _631
REMARK                            x       y       z     vdW  Elec       q    Type
REMARK                         _______ _______ _______ _____ _____    ______ ____
ROOT
ATOM      1  O   HOH     1      45.022 -23.389  66.245  0.00  0.00    +0.000 OA
ENDROOT
TORSDOF 0
REMARK  Name = ../refined-set-2016/2xbp/2xbp_pocket.pdb
REMARK  271 active torsions:
REMARK  status: ('A' for Active; 'I' for Inactive)
REMARK    1  A    between atoms: _1  and  _3
REMARK    2  A    between atoms: _3  and  _4
REMARK    3  A    between atoms: _3  and  _6
REMARK    4  A    between atoms: _6  and  _7
REMARK    5  A    between atoms: _7  and  _8
REMARK    6  A    between atoms: _8  and  _9
REMARK    7  A    between atoms: _9  and  _10
REMARK    8  A    between atoms: _14  and  _16
REMARK    9  A    between atoms: _16  and  _17
REMARK   10  A    between atoms: _16  and  _19
REMARK   11  A    between atoms: _19  and  _20
REMARK   12  A    between atoms: _20  and  _21
REMARK   13  A    between atoms: _21  and  _22
REMARK   14  A    between atoms: _22  and  _23
REMARK   15  A    between atoms: _27  and  _29
REMARK   16  A    between atoms: _29  and  _30
REMARK   17  A    between atoms: _29  and  _32
REMARK   18  A    between atoms: _32  and  _33
REMARK   19  A    between atoms: _36  and  _38
REMARK   20  A    between atoms: _38  and  _39
REMARK   21  A    between atoms: _38  and  _41
REMARK   22  A    between atoms: _41  and  _42
REMARK   23  A    between atoms: _45  and  _47
REMARK   24  A    between atoms: _47  and  _48
REMARK   25  A    between atoms: _47  and  _50
REMARK   26  A    between atoms: _53  and  _55
REMARK   27  A    between atoms: _55  and  _56
REMARK   28  A    between atoms: _58  and  _60
REMARK   29  A    between atoms: _60  and  _61
REMARK   30  A    between atoms: _60  and  _63
REMARK   31  A    between atoms: _64  and  _65
REMARK   32  A    between atoms: _67  and  _69
REMARK   33  A    between atoms: _69  and  _70
REMARK   34  A    between atoms: _69  and  _72
REMARK   35  A    between atoms: _72  and  _73
REMARK   36  A    between atoms: _76  and  _78
REMARK   37  A    between atoms: _78  and  _79
REMARK   38  A    between atoms: _78  and  _81
REMARK   39  A    between atoms: _84  and  _86
REMARK   40  A    between atoms: _86  and  _87
REMARK   41  A    between atoms: _86  and  _89
REMARK   42  A    between atoms: _89  and  _90
REMARK   43  A    between atoms: _93  and  _95
REMARK   44  A    between atoms: _95  and  _96
REMARK   45  A    between atoms: _95  and  _98
REMARK   46  A    between atoms: _98  and  _99
REMARK   47  A    between atoms: _99  and  _100
REMARK   48  A    between atoms: _103  and  _105
REMARK   49  A    between atoms: _105  and  _106
REMARK   50  A    between atoms: _105  and  _108
REMARK   51  A    between atoms: _108  and  _109
REMARK   52  A    between atoms: _112  and  _114
REMARK   53  A    between atoms: _114  and  _115
REMARK   54  A    between atoms: _114  and  _117
REMARK   55  A    between atoms: _120  and  _122
REMARK   56  A    between atoms: _122  and  _123
REMARK   57  A    between atoms: _122  and  _125
REMARK   58  A    between atoms: _128  and  _130
REMARK   59  A    between atoms: _130  and  _131
REMARK   60  A    between atoms: _130  and  _133
REMARK   61  A    between atoms: _134  and  _135
REMARK   62  A    between atoms: _138  and  _140
REMARK   63  A    between atoms: _140  and  _141
REMARK   64  A    between atoms: _140  and  _143
REMARK   65  A    between atoms: _143  and  _144
REMARK   66  A    between atoms: _144  and  _145
REMARK   67  A    between atoms: _150  and  _152
REMARK   68  A    between atoms: _152  and  _153
REMARK   69  A    between atoms: _152  and  _155
REMARK   70  A    between atoms: _155  and  _156
REMARK   71  A    between atoms: _159  and  _161
REMARK   72  A    between atoms: _161  and  _162
REMARK   73  A    between atoms: _161  and  _164
REMARK   74  A    between atoms: _164  and  _165
REMARK   75  A    between atoms: _168  and  _170
REMARK   76  A    between atoms: _170  and  _171
REMARK   77  A    between atoms: _170  and  _173
REMARK   78  A    between atoms: _173  and  _174
REMARK   79  A    between atoms: _174  and  _175
REMARK   80  A    between atoms: _175  and  _176
REMARK   81  A    between atoms: _185  and  _187
REMARK   82  A    between atoms: _187  and  _188
REMARK   83  A    between atoms: _187  and  _190
REMARK   84  A    between atoms: _190  and  _191
REMARK   85  A    between atoms: _194  and  _196
REMARK   86  A    between atoms: _196  and  _197
REMARK   87  A    between atoms: _196  and  _199
REMARK   88  A    between atoms: _199  and  _200
REMARK   89  A    between atoms: _200  and  _201
REMARK   90  A    between atoms: _201  and  _202
REMARK   91  A    between atoms: _211  and  _213
REMARK   92  A    between atoms: _213  and  _214
REMARK   93  A    between atoms: _213  and  _216
REMARK   94  A    between atoms: _216  and  _217
REMARK   95  A    between atoms: _220  and  _222
REMARK   96  A    between atoms: _222  and  _223
REMARK   97  A    between atoms: _225  and  _227
REMARK   98  A    between atoms: _227  and  _228
REMARK   99  A    between atoms: _227  and  _230
REMARK  100  A    between atoms: _230  and  _231
REMARK  101  A    between atoms: _231  and  _232
REMARK  102  A    between atoms: _235  and  _237
REMARK  103  A    between atoms: _237  and  _238
REMARK  104  A    between atoms: _237  and  _240
REMARK  105  A    between atoms: _240  and  _241
REMARK  106  A    between atoms: _244  and  _246
REMARK  107  A    between atoms: _246  and  _247
REMARK  108  A    between atoms: _250  and  _252
REMARK  109  A    between atoms: _252  and  _253
REMARK  110  A    between atoms: _252  and  _255
REMARK  111  A    between atoms: _255  and  _256
REMARK  112  A    between atoms: _261  and  _262
REMARK  113  A    between atoms: _261  and  _264
REMARK  114  A    between atoms: _264  and  _265
REMARK  115  A    between atoms: _267  and  _269
REMARK  116  A    between atoms: _269  and  _270
REMARK  117  A    between atoms: _273  and  _275
REMARK  118  A    between atoms: _275  and  _276
REMARK  119  A    between atoms: _275  and  _278
REMARK  120  A    between atoms: _278  and  _279
REMARK  121  A    between atoms: _282  and  _284
REMARK  122  A    between atoms: _284  and  _285
REMARK  123  A    between atoms: _284  and  _287
REMARK  124  A    between atoms: _287  and  _288
REMARK  125  A    between atoms: _291  and  _293
REMARK  126  A    between atoms: _293  and  _294
REMARK  127  A    between atoms: _293  and  _296
REMARK  128  A    between atoms: _296  and  _297
REMARK  129  A    between atoms: _297  and  _298
REMARK  130  A    between atoms: _298  and  _299
REMARK  131  A    between atoms: _308  and  _310
REMARK  132  A    between atoms: _310  and  _311
REMARK  133  A    between atoms: _310  and  _313
REMARK  134  A    between atoms: _316  and  _318
REMARK  135  A    between atoms: _318  and  _319
REMARK  136  A    between atoms: _318  and  _321
REMARK  137  A    between atoms: _321  and  _322
REMARK  138  A    between atoms: _322  and  _323
REMARK  139  A    between atoms: _323  and  _324
REMARK  140  A    between atoms: _333  and  _335
REMARK  141  A    between atoms: _335  and  _336
REMARK  142  A    between atoms: _338  and  _340
REMARK  143  A    between atoms: _340  and  _341
REMARK  144  A    between atoms: _340  and  _343
REMARK  145  A    between atoms: _343  and  _344
REMARK  146  A    between atoms: _350  and  _352
REMARK  147  A    between atoms: _352  and  _353
REMARK  148  A    between atoms: _353  and  _354
REMARK  149  A    between atoms: _353  and  _355
REMARK  150  A    between atoms: _354  and  MG_637
REMARK  151  A    between atoms: _355  and  _357
REMARK  152  A    between atoms: _357  and  _358
REMARK  153  A    between atoms: _357  and  _360
REMARK  154  A    between atoms: _360  and  _361
REMARK  155  A    between atoms: _361  and  _362
REMARK  156  A    between atoms: _362  and  _363
REMARK  157  A    between atoms: _372  and  _374
REMARK  158  A    between atoms: _374  and  _375
REMARK  159  A    between atoms: _374  and  _377
REMARK  160  A    between atoms: _377  and  _378
REMARK  161  A    between atoms: _378  and  _379
REMARK  162  A    between atoms: _384  and  _386
REMARK  163  A    between atoms: _386  and  _387
REMARK  164  A    between atoms: _386  and  _389
REMARK  165  A    between atoms: _389  and  _390
REMARK  166  A    between atoms: _390  and  _391
REMARK  167  A    between atoms: _391  and  _392
REMARK  168  A    between atoms: _392  and  _393
REMARK  169  A    between atoms: _397  and  _399
REMARK  170  A    between atoms: _399  and  _400
REMARK  171  A    between atoms: _399  and  _402
REMARK  172  A    between atoms: _402  and  _403
REMARK  173  A    between atoms: _403  and  _404
REMARK  174  A    between atoms: _409  and  _411
REMARK  175  A    between atoms: _411  and  _412
REMARK  176  A    between atoms: _411  and  _414
REMARK  177  A    between atoms: _414  and  _415
REMARK  178  A    between atoms: _418  and  _420
REMARK  179  A    between atoms: _420  and  _421
REMARK  180  A    between atoms: _420  and  _423
REMARK  181  A    between atoms: _423  and  _424
REMARK  182  A    between atoms: _424  and  _425
REMARK  183  A    between atoms: _428  and  _430
REMARK  184  A    between atoms: _430  and  _431
REMARK  185  A    between atoms: _430  and  _433
REMARK  186  A    between atoms: _434  and  _435
REMARK  187  A    between atoms: _435  and  _436
REMARK  188  A    between atoms: _445  and  _447
REMARK  189  A    between atoms: _447  and  _448
REMARK  190  A    between atoms: _447  and  _450
REMARK  191  A    between atoms: _450  and  _451
REMARK  192  A    between atoms: _454  and  _456
REMARK  193  A    between atoms: _456  and  _457
REMARK  194  A    between atoms: _456  and  _459
REMARK  195  A    between atoms: _459  and  _460
REMARK  196  A    between atoms: _460  and  _461
REMARK  197  A    between atoms: _464  and  _466
REMARK  198  A    between atoms: _466  and  _467
REMARK  199  A    between atoms: _466  and  _469
REMARK  200  A    between atoms: _469  and  _470
REMARK  201  A    between atoms: _476  and  _478
REMARK  202  A    between atoms: _478  and  _479
REMARK  203  A    between atoms: _478  and  _481
REMARK  204  A    between atoms: _481  and  _482
REMARK  205  A    between atoms: _485  and  _487
REMARK  206  A    between atoms: _487  and  _488
REMARK  207  A    between atoms: _487  and  _490
REMARK  208  A    between atoms: _490  and  _491
REMARK  209  A    between atoms: _491  and  _492
REMARK  210  A    between atoms: _497  and  _499
REMARK  211  A    between atoms: _499  and  _500
REMARK  212  A    between atoms: _499  and  _502
REMARK  213  A    between atoms: _502  and  _503
REMARK  214  A    between atoms: _503  and  _504
REMARK  215  A    between atoms: _504  and  _505
REMARK  216  A    between atoms: _505  and  _506
REMARK  217  A    between atoms: _510  and  _512
REMARK  218  A    between atoms: _512  and  _513
REMARK  219  A    between atoms: _512  and  _515
REMARK  220  A    between atoms: _515  and  _516
REMARK  221  A    between atoms: _519  and  _521
REMARK  222  A    between atoms: _521  and  _522
REMARK  223  A    between atoms: _521  and  _524
REMARK  224  A    between atoms: _524  and  _525
REMARK  225  A    between atoms: _525  and  _526
REMARK  226  A    between atoms: _526  and  _527
REMARK  227  A    between atoms: _527  and  _528
REMARK  228  A    between atoms: _532  and  _534
REMARK  229  A    between atoms: _534  and  _535
REMARK  230  A    between atoms: _534  and  _537
REMARK  231  A    between atoms: _537  and  _538
REMARK  232  A    between atoms: _538  and  _539
REMARK  233  A    between atoms: _539  and  _540
REMARK  234  A    between atoms: _549  and  _551
REMARK  235  A    between atoms: _551  and  _552
REMARK  236  A    between atoms: _551  and  _554
REMARK  237  A    between atoms: _554  and  _555
REMARK  238  A    between atoms: _558  and  _560
REMARK  239  A    between atoms: _560  and  _561
REMARK  240  A    between atoms: _563  and  _565
REMARK  241  A    between atoms: _565  and  _566
REMARK  242  A    between atoms: _565  and  _568
REMARK  243  A    between atoms: _568  and  _569
REMARK  244  A    between atoms: _569  and  _570
REMARK  245  A    between atoms: _573  and  _575
REMARK  246  A    between atoms: _575  and  _576
REMARK  247  A    between atoms: _575  and  _578
REMARK  248  A    between atoms: _578  and  _579
REMARK  249  A    between atoms: _584  and  _586
REMARK  250  A    between atoms: _586  and  _587
REMARK  251  A    between atoms: _589  and  _591
REMARK  252  A    between atoms: _591  and  _592
REMARK  253  A    between atoms: _591  and  _594
REMARK  254  A    between atoms: _594  and  _595
REMARK  255  A    between atoms: _598  and  _600
REMARK  256  A    between atoms: _600  and  _601
REMARK  257  A    between atoms: _603  and  _605
REMARK  258  A    between atoms: _605  and  _606
REMARK  259  A    between atoms: _605  and  _608
REMARK  260  A    between atoms: _608  and  _609
REMARK  261  A    between atoms: _609  and  _610
REMARK  262  A    between atoms: _610  and  _611
REMARK  263  A    between atoms: _611  and  _612
REMARK  264  A    between atoms: _616  and  _618
REMARK  265  A    between atoms: _618  and  _619
REMARK  266  A    between atoms: _618  and  _621
REMARK  267  A    between atoms: _621  and  _622
REMARK  268  A    between atoms: _625  and  _627
REMARK  269  A    between atoms: _627  and  _628
REMARK  270  A    between atoms: _627  and  _630
REMARK  271  A    between atoms: _630  and  _631
REMARK                            x       y       z     vdW  Elec       q    Type
REMARK                         _______ _______ _______ _____ _____    ______ ____
ROOT
ATOM      1  O   HOH     1      47.738 -23.092  62.955  0.00  0.00    +0.000 OA
ENDROOT
TORSDOF 0
REMARK  Name = ../refined-set-2016/2xbp/2xbp_pocket.pdb
REMARK  271 active torsions:
REMARK  status: ('A' for Active; 'I' for Inactive)
REMARK    1  A    between atoms: _1  and  _3
REMARK    2  A    between atoms: _3  and  _4
REMARK    3  A    between atoms: _3  and  _6
REMARK    4  A    between atoms: _6  and  _7
REMARK    5  A    between atoms: _7  and  _8
REMARK    6  A    between atoms: _8  and  _9
REMARK    7  A    between atoms: _9  and  _10
REMARK    8  A    between atoms: _14  and  _16
REMARK    9  A    between atoms: _16  and  _17
REMARK   10  A    between atoms: _16  and  _19
REMARK   11  A    between atoms: _19  and  _20
REMARK   12  A    between atoms: _20  and  _21
REMARK   13  A    between atoms: _21  and  _22
REMARK   14  A    between atoms: _22  and  _23
REMARK   15  A    between atoms: _27  and  _29
REMARK   16  A    between atoms: _29  and  _30
REMARK   17  A    between atoms: _29  and  _32
REMARK   18  A    between atoms: _32  and  _33
REMARK   19  A    between atoms: _36  and  _38
REMARK   20  A    between atoms: _38  and  _39
REMARK   21  A    between atoms: _38  and  _41
REMARK   22  A    between atoms: _41  and  _42
REMARK   23  A    between atoms: _45  and  _47
REMARK   24  A    between atoms: _47  and  _48
REMARK   25  A    between atoms: _47  and  _50
REMARK   26  A    between atoms: _53  and  _55
REMARK   27  A    between atoms: _55  and  _56
REMARK   28  A    between atoms: _58  and  _60
REMARK   29  A    between atoms: _60  and  _61
REMARK   30  A    between atoms: _60  and  _63
REMARK   31  A    between atoms: _64  and  _65
REMARK   32  A    between atoms: _67  and  _69
REMARK   33  A    between atoms: _69  and  _70
REMARK   34  A    between atoms: _69  and  _72
REMARK   35  A    between atoms: _72  and  _73
REMARK   36  A    between atoms: _76  and  _78
REMARK   37  A    between atoms: _78  and  _79
REMARK   38  A    between atoms: _78  and  _81
REMARK   39  A    between atoms: _84  and  _86
REMARK   40  A    between atoms: _86  and  _87
REMARK   41  A    between atoms: _86  and  _89
REMARK   42  A    between atoms: _89  and  _90
REMARK   43  A    between atoms: _93  and  _95
REMARK   44  A    between atoms: _95  and  _96
REMARK   45  A    between atoms: _95  and  _98
REMARK   46  A    between atoms: _98  and  _99
REMARK   47  A    between atoms: _99  and  _100
REMARK   48  A    between atoms: _103  and  _105
REMARK   49  A    between atoms: _105  and  _106
REMARK   50  A    between atoms: _105  and  _108
REMARK   51  A    between atoms: _108  and  _109
REMARK   52  A    between atoms: _112  and  _114
REMARK   53  A    between atoms: _114  and  _115
REMARK   54  A    between atoms: _114  and  _117
REMARK   55  A    between atoms: _120  and  _122
REMARK   56  A    between atoms: _122  and  _123
REMARK   57  A    between atoms: _122  and  _125
REMARK   58  A    between atoms: _128  and  _130
REMARK   59  A    between atoms: _130  and  _131
REMARK   60  A    between atoms: _130  and  _133
REMARK   61  A    between atoms: _134  and  _135
REMARK   62  A    between atoms: _138  and  _140
REMARK   63  A    between atoms: _140  and  _141
REMARK   64  A    between atoms: _140  and  _143
REMARK   65  A    between atoms: _143  and  _144
REMARK   66  A    between atoms: _144  and  _145
REMARK   67  A    between atoms: _150  and  _152
REMARK   68  A    between atoms: _152  and  _153
REMARK   69  A    between atoms: _152  and  _155
REMARK   70  A    between atoms: _155  and  _156
REMARK   71  A    between atoms: _159  and  _161
REMARK   72  A    between atoms: _161  and  _162
REMARK   73  A    between atoms: _161  and  _164
REMARK   74  A    between atoms: _164  and  _165
REMARK   75  A    between atoms: _168  and  _170
REMARK   76  A    between atoms: _170  and  _171
REMARK   77  A    between atoms: _170  and  _173
REMARK   78  A    between atoms: _173  and  _174
REMARK   79  A    between atoms: _174  and  _175
REMARK   80  A    between atoms: _175  and  _176
REMARK   81  A    between atoms: _185  and  _187
REMARK   82  A    between atoms: _187  and  _188
REMARK   83  A    between atoms: _187  and  _190
REMARK   84  A    between atoms: _190  and  _191
REMARK   85  A    between atoms: _194  and  _196
REMARK   86  A    between atoms: _196  and  _197
REMARK   87  A    between atoms: _196  and  _199
REMARK   88  A    between atoms: _199  and  _200
REMARK   89  A    between atoms: _200  and  _201
REMARK   90  A    between atoms: _201  and  _202
REMARK   91  A    between atoms: _211  and  _213
REMARK   92  A    between atoms: _213  and  _214
REMARK   93  A    between atoms: _213  and  _216
REMARK   94  A    between atoms: _216  and  _217
REMARK   95  A    between atoms: _220  and  _222
REMARK   96  A    between atoms: _222  and  _223
REMARK   97  A    between atoms: _225  and  _227
REMARK   98  A    between atoms: _227  and  _228
REMARK   99  A    between atoms: _227  and  _230
REMARK  100  A    between atoms: _230  and  _231
REMARK  101  A    between atoms: _231  and  _232
REMARK  102  A    between atoms: _235  and  _237
REMARK  103  A    between atoms: _237  and  _238
REMARK  104  A    between atoms: _237  and  _240
REMARK  105  A    between atoms: _240  and  _241
REMARK  106  A    between atoms: _244  and  _246
REMARK  107  A    between atoms: _246  and  _247
REMARK  108  A    between atoms: _250  and  _252
REMARK  109  A    between atoms: _252  and  _253
REMARK  110  A    between atoms: _252  and  _255
REMARK  111  A    between atoms: _255  and  _256
REMARK  112  A    between atoms: _261  and  _262
REMARK  113  A    between atoms: _261  and  _264
REMARK  114  A    between atoms: _264  and  _265
REMARK  115  A    between atoms: _267  and  _269
REMARK  116  A    between atoms: _269  and  _270
REMARK  117  A    between atoms: _273  and  _275
REMARK  118  A    between atoms: _275  and  _276
REMARK  119  A    between atoms: _275  and  _278
REMARK  120  A    between atoms: _278  and  _279
REMARK  121  A    between atoms: _282  and  _284
REMARK  122  A    between atoms: _284  and  _285
REMARK  123  A    between atoms: _284  and  _287
REMARK  124  A    between atoms: _287  and  _288
REMARK  125  A    between atoms: _291  and  _293
REMARK  126  A    between atoms: _293  and  _294
REMARK  127  A    between atoms: _293  and  _296
REMARK  128  A    between atoms: _296  and  _297
REMARK  129  A    between atoms: _297  and  _298
REMARK  130  A    between atoms: _298  and  _299
REMARK  131  A    between atoms: _308  and  _310
REMARK  132  A    between atoms: _310  and  _311
REMARK  133  A    between atoms: _310  and  _313
REMARK  134  A    between atoms: _316  and  _318
REMARK  135  A    between atoms: _318  and  _319
REMARK  136  A    between atoms: _318  and  _321
REMARK  137  A    between atoms: _321  and  _322
REMARK  138  A    between atoms: _322  and  _323
REMARK  139  A    between atoms: _323  and  _324
REMARK  140  A    between atoms: _333  and  _335
REMARK  141  A    between atoms: _335  and  _336
REMARK  142  A    between atoms: _338  and  _340
REMARK  143  A    between atoms: _340  and  _341
REMARK  144  A    between atoms: _340  and  _343
REMARK  145  A    between atoms: _343  and  _344
REMARK  146  A    between atoms: _350  and  _352
REMARK  147  A    between atoms: _352  and  _353
REMARK  148  A    between atoms: _353  and  _354
REMARK  149  A    between atoms: _353  and  _355
REMARK  150  A    between atoms: _354  and  MG_637
REMARK  151  A    between atoms: _355  and  _357
REMARK  152  A    between atoms: _357  and  _358
REMARK  153  A    between atoms: _357  and  _360
REMARK  154  A    between atoms: _360  and  _361
REMARK  155  A    between atoms: _361  and  _362
REMARK  156  A    between atoms: _362  and  _363
REMARK  157  A    between atoms: _372  and  _374
REMARK  158  A    between atoms: _374  and  _375
REMARK  159  A    between atoms: _374  and  _377
REMARK  160  A    between atoms: _377  and  _378
REMARK  161  A    between atoms: _378  and  _379
REMARK  162  A    between atoms: _384  and  _386
REMARK  163  A    between atoms: _386  and  _387
REMARK  164  A    between atoms: _386  and  _389
REMARK  165  A    between atoms: _389  and  _390
REMARK  166  A    between atoms: _390  and  _391
REMARK  167  A    between atoms: _391  and  _392
REMARK  168  A    between atoms: _392  and  _393
REMARK  169  A    between atoms: _397  and  _399
REMARK  170  A    between atoms: _399  and  _400
REMARK  171  A    between atoms: _399  and  _402
REMARK  172  A    between atoms: _402  and  _403
REMARK  173  A    between atoms: _403  and  _404
REMARK  174  A    between atoms: _409  and  _411
REMARK  175  A    between atoms: _411  and  _412
REMARK  176  A    between atoms: _411  and  _414
REMARK  177  A    between atoms: _414  and  _415
REMARK  178  A    between atoms: _418  and  _420
REMARK  179  A    between atoms: _420  and  _421
REMARK  180  A    between atoms: _420  and  _423
REMARK  181  A    between atoms: _423  and  _424
REMARK  182  A    between atoms: _424  and  _425
REMARK  183  A    between atoms: _428  and  _430
REMARK  184  A    between atoms: _430  and  _431
REMARK  185  A    between atoms: _430  and  _433
REMARK  186  A    between atoms: _434  and  _435
REMARK  187  A    between atoms: _435  and  _436
REMARK  188  A    between atoms: _445  and  _447
REMARK  189  A    between atoms: _447  and  _448
REMARK  190  A    between atoms: _447  and  _450
REMARK  191  A    between atoms: _450  and  _451
REMARK  192  A    between atoms: _454  and  _456
REMARK  193  A    between atoms: _456  and  _457
REMARK  194  A    between atoms: _456  and  _459
REMARK  195  A    between atoms: _459  and  _460
REMARK  196  A    between atoms: _460  and  _461
REMARK  197  A    between atoms: _464  and  _466
REMARK  198  A    between atoms: _466  and  _467
REMARK  199  A    between atoms: _466  and  _469
REMARK  200  A    between atoms: _469  and  _470
REMARK  201  A    between atoms: _476  and  _478
REMARK  202  A    between atoms: _478  and  _479
REMARK  203  A    between atoms: _478  and  _481
REMARK  204  A    between atoms: _481  and  _482
REMARK  205  A    between atoms: _485  and  _487
REMARK  206  A    between atoms: _487  and  _488
REMARK  207  A    between atoms: _487  and  _490
REMARK  208  A    between atoms: _490  and  _491
REMARK  209  A    between atoms: _491  and  _492
REMARK  210  A    between atoms: _497  and  _499
REMARK  211  A    between atoms: _499  and  _500
REMARK  212  A    between atoms: _499  and  _502
REMARK  213  A    between atoms: _502  and  _503
REMARK  214  A    between atoms: _503  and  _504
REMARK  215  A    between atoms: _504  and  _505
REMARK  216  A    between atoms: _505  and  _506
REMARK  217  A    between atoms: _510  and  _512
REMARK  218  A    between atoms: _512  and  _513
REMARK  219  A    between atoms: _512  and  _515
REMARK  220  A    between atoms: _515  and  _516
REMARK  221  A    between atoms: _519  and  _521
REMARK  222  A    between atoms: _521  and  _522
REMARK  223  A    between atoms: _521  and  _524
REMARK  224  A    between atoms: _524  and  _525
REMARK  225  A    between atoms: _525  and  _526
REMARK  226  A    between atoms: _526  and  _527
REMARK  227  A    between atoms: _527  and  _528
REMARK  228  A    between atoms: _532  and  _534
REMARK  229  A    between atoms: _534  and  _535
REMARK  230  A    between atoms: _534  and  _537
REMARK  231  A    between atoms: _537  and  _538
REMARK  232  A    between atoms: _538  and  _539
REMARK  233  A    between atoms: _539  and  _540
REMARK  234  A    between atoms: _549  and  _551
REMARK  235  A    between atoms: _551  and  _552
REMARK  236  A    between atoms: _551  and  _554
REMARK  237  A    between atoms: _554  and  _555
REMARK  238  A    between atoms: _558  and  _560
REMARK  239  A    between atoms: _560  and  _561
REMARK  240  A    between atoms: _563  and  _565
REMARK  241  A    between atoms: _565  and  _566
REMARK  242  A    between atoms: _565  and  _568
REMARK  243  A    between atoms: _568  and  _569
REMARK  244  A    between atoms: _569  and  _570
REMARK  245  A    between atoms: _573  and  _575
REMARK  246  A    between atoms: _575  and  _576
REMARK  247  A    between atoms: _575  and  _578
REMARK  248  A    between atoms: _578  and  _579
REMARK  249  A    between atoms: _584  and  _586
REMARK  250  A    between atoms: _586  and  _587
REMARK  251  A    between atoms: _589  and  _591
REMARK  252  A    between atoms: _591  and  _592
REMARK  253  A    between atoms: _591  and  _594
REMARK  254  A    between atoms: _594  and  _595
REMARK  255  A    between atoms: _598  and  _600
REMARK  256  A    between atoms: _600  and  _601
REMARK  257  A    between atoms: _603  and  _605
REMARK  258  A    between atoms: _605  and  _606
REMARK  259  A    between atoms: _605  and  _608
REMARK  260  A    between atoms: _608  and  _609
REMARK  261  A    between atoms: _609  and  _610
REMARK  262  A    between atoms: _610  and  _611
REMARK  263  A    between atoms: _611  and  _612
REMARK  264  A    between atoms: _616  and  _618
REMARK  265  A    between atoms: _618  and  _619
REMARK  266  A    between atoms: _618  and  _621
REMARK  267  A    between atoms: _621  and  _622
REMARK  268  A    between atoms: _625  and  _627
REMARK  269  A    between atoms: _627  and  _628
REMARK  270  A    between atoms: _627  and  _630
REMARK  271  A    between atoms: _630  and  _631
REMARK                            x       y       z     vdW  Elec       q    Type
REMARK                         _______ _______ _______ _____ _____    ______ ____
ROOT
ATOM      1  O   HOH     1      43.680 -20.220  65.780  0.00  0.00    +0.000 OA
ENDROOT
TORSDOF 0
REMARK  Name = ../refined-set-2016/2xbp/2xbp_pocket.pdb
REMARK  271 active torsions:
REMARK  status: ('A' for Active; 'I' for Inactive)
REMARK    1  A    between atoms: _1  and  _3
REMARK    2  A    between atoms: _3  and  _4
REMARK    3  A    between atoms: _3  and  _6
REMARK    4  A    between atoms: _6  and  _7
REMARK    5  A    between atoms: _7  and  _8
REMARK    6  A    between atoms: _8  and  _9
REMARK    7  A    between atoms: _9  and  _10
REMARK    8  A    between atoms: _14  and  _16
REMARK    9  A    between atoms: _16  and  _17
REMARK   10  A    between atoms: _16  and  _19
REMARK   11  A    between atoms: _19  and  _20
REMARK   12  A    between atoms: _20  and  _21
REMARK   13  A    between atoms: _21  and  _22
REMARK   14  A    between atoms: _22  and  _23
REMARK   15  A    between atoms: _27  and  _29
REMARK   16  A    between atoms: _29  and  _30
REMARK   17  A    between atoms: _29  and  _32
REMARK   18  A    between atoms: _32  and  _33
REMARK   19  A    between atoms: _36  and  _38
REMARK   20  A    between atoms: _38  and  _39
REMARK   21  A    between atoms: _38  and  _41
REMARK   22  A    between atoms: _41  and  _42
REMARK   23  A    between atoms: _45  and  _47
REMARK   24  A    between atoms: _47  and  _48
REMARK   25  A    between atoms: _47  and  _50
REMARK   26  A    between atoms: _53  and  _55
REMARK   27  A    between atoms: _55  and  _56
REMARK   28  A    between atoms: _58  and  _60
REMARK   29  A    between atoms: _60  and  _61
REMARK   30  A    between atoms: _60  and  _63
REMARK   31  A    between atoms: _64  and  _65
REMARK   32  A    between atoms: _67  and  _69
REMARK   33  A    between atoms: _69  and  _70
REMARK   34  A    between atoms: _69  and  _72
REMARK   35  A    between atoms: _72  and  _73
REMARK   36  A    between atoms: _76  and  _78
REMARK   37  A    between atoms: _78  and  _79
REMARK   38  A    between atoms: _78  and  _81
REMARK   39  A    between atoms: _84  and  _86
REMARK   40  A    between atoms: _86  and  _87
REMARK   41  A    between atoms: _86  and  _89
REMARK   42  A    between atoms: _89  and  _90
REMARK   43  A    between atoms: _93  and  _95
REMARK   44  A    between atoms: _95  and  _96
REMARK   45  A    between atoms: _95  and  _98
REMARK   46  A    between atoms: _98  and  _99
REMARK   47  A    between atoms: _99  and  _100
REMARK   48  A    between atoms: _103  and  _105
REMARK   49  A    between atoms: _105  and  _106
REMARK   50  A    between atoms: _105  and  _108
REMARK   51  A    between atoms: _108  and  _109
REMARK   52  A    between atoms: _112  and  _114
REMARK   53  A    between atoms: _114  and  _115
REMARK   54  A    between atoms: _114  and  _117
REMARK   55  A    between atoms: _120  and  _122
REMARK   56  A    between atoms: _122  and  _123
REMARK   57  A    between atoms: _122  and  _125
REMARK   58  A    between atoms: _128  and  _130
REMARK   59  A    between atoms: _130  and  _131
REMARK   60  A    between atoms: _130  and  _133
REMARK   61  A    between atoms: _134  and  _135
REMARK   62  A    between atoms: _138  and  _140
REMARK   63  A    between atoms: _140  and  _141
REMARK   64  A    between atoms: _140  and  _143
REMARK   65  A    between atoms: _143  and  _144
REMARK   66  A    between atoms: _144  and  _145
REMARK   67  A    between atoms: _150  and  _152
REMARK   68  A    between atoms: _152  and  _153
REMARK   69  A    between atoms: _152  and  _155
REMARK   70  A    between atoms: _155  and  _156
REMARK   71  A    between atoms: _159  and  _161
REMARK   72  A    between atoms: _161  and  _162
REMARK   73  A    between atoms: _161  and  _164
REMARK   74  A    between atoms: _164  and  _165
REMARK   75  A    between atoms: _168  and  _170
REMARK   76  A    between atoms: _170  and  _171
REMARK   77  A    between atoms: _170  and  _173
REMARK   78  A    between atoms: _173  and  _174
REMARK   79  A    between atoms: _174  and  _175
REMARK   80  A    between atoms: _175  and  _176
REMARK   81  A    between atoms: _185  and  _187
REMARK   82  A    between atoms: _187  and  _188
REMARK   83  A    between atoms: _187  and  _190
REMARK   84  A    between atoms: _190  and  _191
REMARK   85  A    between atoms: _194  and  _196
REMARK   86  A    between atoms: _196  and  _197
REMARK   87  A    between atoms: _196  and  _199
REMARK   88  A    between atoms: _199  and  _200
REMARK   89  A    between atoms: _200  and  _201
REMARK   90  A    between atoms: _201  and  _202
REMARK   91  A    between atoms: _211  and  _213
REMARK   92  A    between atoms: _213  and  _214
REMARK   93  A    between atoms: _213  and  _216
REMARK   94  A    between atoms: _216  and  _217
REMARK   95  A    between atoms: _220  and  _222
REMARK   96  A    between atoms: _222  and  _223
REMARK   97  A    between atoms: _225  and  _227
REMARK   98  A    between atoms: _227  and  _228
REMARK   99  A    between atoms: _227  and  _230
REMARK  100  A    between atoms: _230  and  _231
REMARK  101  A    between atoms: _231  and  _232
REMARK  102  A    between atoms: _235  and  _237
REMARK  103  A    between atoms: _237  and  _238
REMARK  104  A    between atoms: _237  and  _240
REMARK  105  A    between atoms: _240  and  _241
REMARK  106  A    between atoms: _244  and  _246
REMARK  107  A    between atoms: _246  and  _247
REMARK  108  A    between atoms: _250  and  _252
REMARK  109  A    between atoms: _252  and  _253
REMARK  110  A    between atoms: _252  and  _255
REMARK  111  A    between atoms: _255  and  _256
REMARK  112  A    between atoms: _261  and  _262
REMARK  113  A    between atoms: _261  and  _264
REMARK  114  A    between atoms: _264  and  _265
REMARK  115  A    between atoms: _267  and  _269
REMARK  116  A    between atoms: _269  and  _270
REMARK  117  A    between atoms: _273  and  _275
REMARK  118  A    between atoms: _275  and  _276
REMARK  119  A    between atoms: _275  and  _278
REMARK  120  A    between atoms: _278  and  _279
REMARK  121  A    between atoms: _282  and  _284
REMARK  122  A    between atoms: _284  and  _285
REMARK  123  A    between atoms: _284  and  _287
REMARK  124  A    between atoms: _287  and  _288
REMARK  125  A    between atoms: _291  and  _293
REMARK  126  A    between atoms: _293  and  _294
REMARK  127  A    between atoms: _293  and  _296
REMARK  128  A    between atoms: _296  and  _297
REMARK  129  A    between atoms: _297  and  _298
REMARK  130  A    between atoms: _298  and  _299
REMARK  131  A    between atoms: _308  and  _310
REMARK  132  A    between atoms: _310  and  _311
REMARK  133  A    between atoms: _310  and  _313
REMARK  134  A    between atoms: _316  and  _318
REMARK  135  A    between atoms: _318  and  _319
REMARK  136  A    between atoms: _318  and  _321
REMARK  137  A    between atoms: _321  and  _322
REMARK  138  A    between atoms: _322  and  _323
REMARK  139  A    between atoms: _323  and  _324
REMARK  140  A    between atoms: _333  and  _335
REMARK  141  A    between atoms: _335  and  _336
REMARK  142  A    between atoms: _338  and  _340
REMARK  143  A    between atoms: _340  and  _341
REMARK  144  A    between atoms: _340  and  _343
REMARK  145  A    between atoms: _343  and  _344
REMARK  146  A    between atoms: _350  and  _352
REMARK  147  A    between atoms: _352  and  _353
REMARK  148  A    between atoms: _353  and  _354
REMARK  149  A    between atoms: _353  and  _355
REMARK  150  A    between atoms: _354  and  MG_637
REMARK  151  A    between atoms: _355  and  _357
REMARK  152  A    between atoms: _357  and  _358
REMARK  153  A    between atoms: _357  and  _360
REMARK  154  A    between atoms: _360  and  _361
REMARK  155  A    between atoms: _361  and  _362
REMARK  156  A    between atoms: _362  and  _363
REMARK  157  A    between atoms: _372  and  _374
REMARK  158  A    between atoms: _374  and  _375
REMARK  159  A    between atoms: _374  and  _377
REMARK  160  A    between atoms: _377  and  _378
REMARK  161  A    between atoms: _378  and  _379
REMARK  162  A    between atoms: _384  and  _386
REMARK  163  A    between atoms: _386  and  _387
REMARK  164  A    between atoms: _386  and  _389
REMARK  165  A    between atoms: _389  and  _390
REMARK  166  A    between atoms: _390  and  _391
REMARK  167  A    between atoms: _391  and  _392
REMARK  168  A    between atoms: _392  and  _393
REMARK  169  A    between atoms: _397  and  _399
REMARK  170  A    between atoms: _399  and  _400
REMARK  171  A    between atoms: _399  and  _402
REMARK  172  A    between atoms: _402  and  _403
REMARK  173  A    between atoms: _403  and  _404
REMARK  174  A    between atoms: _409  and  _411
REMARK  175  A    between atoms: _411  and  _412
REMARK  176  A    between atoms: _411  and  _414
REMARK  177  A    between atoms: _414  and  _415
REMARK  178  A    between atoms: _418  and  _420
REMARK  179  A    between atoms: _420  and  _421
REMARK  180  A    between atoms: _420  and  _423
REMARK  181  A    between atoms: _423  and  _424
REMARK  182  A    between atoms: _424  and  _425
REMARK  183  A    between atoms: _428  and  _430
REMARK  184  A    between atoms: _430  and  _431
REMARK  185  A    between atoms: _430  and  _433
REMARK  186  A    between atoms: _434  and  _435
REMARK  187  A    between atoms: _435  and  _436
REMARK  188  A    between atoms: _445  and  _447
REMARK  189  A    between atoms: _447  and  _448
REMARK  190  A    between atoms: _447  and  _450
REMARK  191  A    between atoms: _450  and  _451
REMARK  192  A    between atoms: _454  and  _456
REMARK  193  A    between atoms: _456  and  _457
REMARK  194  A    between atoms: _456  and  _459
REMARK  195  A    between atoms: _459  and  _460
REMARK  196  A    between atoms: _460  and  _461
REMARK  197  A    between atoms: _464  and  _466
REMARK  198  A    between atoms: _466  and  _467
REMARK  199  A    between atoms: _466  and  _469
REMARK  200  A    between atoms: _469  and  _470
REMARK  201  A    between atoms: _476  and  _478
REMARK  202  A    between atoms: _478  and  _479
REMARK  203  A    between atoms: _478  and  _481
REMARK  204  A    between atoms: _481  and  _482
REMARK  205  A    between atoms: _485  and  _487
REMARK  206  A    between atoms: _487  and  _488
REMARK  207  A    between atoms: _487  and  _490
REMARK  208  A    between atoms: _490  and  _491
REMARK  209  A    between atoms: _491  and  _492
REMARK  210  A    between atoms: _497  and  _499
REMARK  211  A    between atoms: _499  and  _500
REMARK  212  A    between atoms: _499  and  _502
REMARK  213  A    between atoms: _502  and  _503
REMARK  214  A    between atoms: _503  and  _504
REMARK  215  A    between atoms: _504  and  _505
REMARK  216  A    between atoms: _505  and  _506
REMARK  217  A    between atoms: _510  and  _512
REMARK  218  A    between atoms: _512  and  _513
REMARK  219  A    between atoms: _512  and  _515
REMARK  220  A    between atoms: _515  and  _516
REMARK  221  A    between atoms: _519  and  _521
REMARK  222  A    between atoms: _521  and  _522
REMARK  223  A    between atoms: _521  and  _524
REMARK  224  A    between atoms: _524  and  _525
REMARK  225  A    between atoms: _525  and  _526
REMARK  226  A    between atoms: _526  and  _527
REMARK  227  A    between atoms: _527  and  _528
REMARK  228  A    between atoms: _532  and  _534
REMARK  229  A    between atoms: _534  and  _535
REMARK  230  A    between atoms: _534  and  _537
REMARK  231  A    between atoms: _537  and  _538
REMARK  232  A    between atoms: _538  and  _539
REMARK  233  A    between atoms: _539  and  _540
REMARK  234  A    between atoms: _549  and  _551
REMARK  235  A    between atoms: _551  and  _552
REMARK  236  A    between atoms: _551  and  _554
REMARK  237  A    between atoms: _554  and  _555
REMARK  238  A    between atoms: _558  and  _560
REMARK  239  A    between atoms: _560  and  _561
REMARK  240  A    between atoms: _563  and  _565
REMARK  241  A    between atoms: _565  and  _566
REMARK  242  A    between atoms: _565  and  _568
REMARK  243  A    between atoms: _568  and  _569
REMARK  244  A    between atoms: _569  and  _570
REMARK  245  A    between atoms: _573  and  _575
REMARK  246  A    between atoms: _575  and  _576
REMARK  247  A    between atoms: _575  and  _578
REMARK  248  A    between atoms: _578  and  _579
REMARK  249  A    between atoms: _584  and  _586
REMARK  250  A    between atoms: _586  and  _587
REMARK  251  A    between atoms: _589  and  _591
REMARK  252  A    between atoms: _591  and  _592
REMARK  253  A    between atoms: _591  and  _594
REMARK  254  A    between atoms: _594  and  _595
REMARK  255  A    between atoms: _598  and  _600
REMARK  256  A    between atoms: _600  and  _601
REMARK  257  A    between atoms: _603  and  _605
REMARK  258  A    between atoms: _605  and  _606
REMARK  259  A    between atoms: _605  and  _608
REMARK  260  A    between atoms: _608  and  _609
REMARK  261  A    between atoms: _609  and  _610
REMARK  262  A    between atoms: _610  and  _611
REMARK  263  A    between atoms: _611  and  _612
REMARK  264  A    between atoms: _616  and  _618
REMARK  265  A    between atoms: _618  and  _619
REMARK  266  A    between atoms: _618  and  _621
REMARK  267  A    between atoms: _621  and  _622
REMARK  268  A    between atoms: _625  and  _627
REMARK  269  A    between atoms: _627  and  _628
REMARK  270  A    between atoms: _627  and  _630
REMARK  271  A    between atoms: _630  and  _631
REMARK                            x       y       z     vdW  Elec       q    Type
REMARK                         _______ _______ _______ _____ _____    ______ ____
ROOT
ATOM      1  O   HOH     1      42.766 -16.899  63.428  0.00  0.00    +0.000 OA
ENDROOT
TORSDOF 0
REMARK  Name = ../refined-set-2016/2xbp/2xbp_pocket.pdb
REMARK  271 active torsions:
REMARK  status: ('A' for Active; 'I' for Inactive)
REMARK    1  A    between atoms: _1  and  _3
REMARK    2  A    between atoms: _3  and  _4
REMARK    3  A    between atoms: _3  and  _6
REMARK    4  A    between atoms: _6  and  _7
REMARK    5  A    between atoms: _7  and  _8
REMARK    6  A    between atoms: _8  and  _9
REMARK    7  A    between atoms: _9  and  _10
REMARK    8  A    between atoms: _14  and  _16
REMARK    9  A    between atoms: _16  and  _17
REMARK   10  A    between atoms: _16  and  _19
REMARK   11  A    between atoms: _19  and  _20
REMARK   12  A    between atoms: _20  and  _21
REMARK   13  A    between atoms: _21  and  _22
REMARK   14  A    between atoms: _22  and  _23
REMARK   15  A    between atoms: _27  and  _29
REMARK   16  A    between atoms: _29  and  _30
REMARK   17  A    between atoms: _29  and  _32
REMARK   18  A    between atoms: _32  and  _33
REMARK   19  A    between atoms: _36  and  _38
REMARK   20  A    between atoms: _38  and  _39
REMARK   21  A    between atoms: _38  and  _41
REMARK   22  A    between atoms: _41  and  _42
REMARK   23  A    between atoms: _45  and  _47
REMARK   24  A    between atoms: _47  and  _48
REMARK   25  A    between atoms: _47  and  _50
REMARK   26  A    between atoms: _53  and  _55
REMARK   27  A    between atoms: _55  and  _56
REMARK   28  A    between atoms: _58  and  _60
REMARK   29  A    between atoms: _60  and  _61
REMARK   30  A    between atoms: _60  and  _63
REMARK   31  A    between atoms: _64  and  _65
REMARK   32  A    between atoms: _67  and  _69
REMARK   33  A    between atoms: _69  and  _70
REMARK   34  A    between atoms: _69  and  _72
REMARK   35  A    between atoms: _72  and  _73
REMARK   36  A    between atoms: _76  and  _78
REMARK   37  A    between atoms: _78  and  _79
REMARK   38  A    between atoms: _78  and  _81
REMARK   39  A    between atoms: _84  and  _86
REMARK   40  A    between atoms: _86  and  _87
REMARK   41  A    between atoms: _86  and  _89
REMARK   42  A    between atoms: _89  and  _90
REMARK   43  A    between atoms: _93  and  _95
REMARK   44  A    between atoms: _95  and  _96
REMARK   45  A    between atoms: _95  and  _98
REMARK   46  A    between atoms: _98  and  _99
REMARK   47  A    between atoms: _99  and  _100
REMARK   48  A    between atoms: _103  and  _105
REMARK   49  A    between atoms: _105  and  _106
REMARK   50  A    between atoms: _105  and  _108
REMARK   51  A    between atoms: _108  and  _109
REMARK   52  A    between atoms: _112  and  _114
REMARK   53  A    between atoms: _114  and  _115
REMARK   54  A    between atoms: _114  and  _117
REMARK   55  A    between atoms: _120  and  _122
REMARK   56  A    between atoms: _122  and  _123
REMARK   57  A    between atoms: _122  and  _125
REMARK   58  A    between atoms: _128  and  _130
REMARK   59  A    between atoms: _130  and  _131
REMARK   60  A    between atoms: _130  and  _133
REMARK   61  A    between atoms: _134  and  _135
REMARK   62  A    between atoms: _138  and  _140
REMARK   63  A    between atoms: _140  and  _141
REMARK   64  A    between atoms: _140  and  _143
REMARK   65  A    between atoms: _143  and  _144
REMARK   66  A    between atoms: _144  and  _145
REMARK   67  A    between atoms: _150  and  _152
REMARK   68  A    between atoms: _152  and  _153
REMARK   69  A    between atoms: _152  and  _155
REMARK   70  A    between atoms: _155  and  _156
REMARK   71  A    between atoms: _159  and  _161
REMARK   72  A    between atoms: _161  and  _162
REMARK   73  A    between atoms: _161  and  _164
REMARK   74  A    between atoms: _164  and  _165
REMARK   75  A    between atoms: _168  and  _170
REMARK   76  A    between atoms: _170  and  _171
REMARK   77  A    between atoms: _170  and  _173
REMARK   78  A    between atoms: _173  and  _174
REMARK   79  A    between atoms: _174  and  _175
REMARK   80  A    between atoms: _175  and  _176
REMARK   81  A    between atoms: _185  and  _187
REMARK   82  A    between atoms: _187  and  _188
REMARK   83  A    between atoms: _187  and  _190
REMARK   84  A    between atoms: _190  and  _191
REMARK   85  A    between atoms: _194  and  _196
REMARK   86  A    between atoms: _196  and  _197
REMARK   87  A    between atoms: _196  and  _199
REMARK   88  A    between atoms: _199  and  _200
REMARK   89  A    between atoms: _200  and  _201
REMARK   90  A    between atoms: _201  and  _202
REMARK   91  A    between atoms: _211  and  _213
REMARK   92  A    between atoms: _213  and  _214
REMARK   93  A    between atoms: _213  and  _216
REMARK   94  A    between atoms: _216  and  _217
REMARK   95  A    between atoms: _220  and  _222
REMARK   96  A    between atoms: _222  and  _223
REMARK   97  A    between atoms: _225  and  _227
REMARK   98  A    between atoms: _227  and  _228
REMARK   99  A    between atoms: _227  and  _230
REMARK  100  A    between atoms: _230  and  _231
REMARK  101  A    between atoms: _231  and  _232
REMARK  102  A    between atoms: _235  and  _237
REMARK  103  A    between atoms: _237  and  _238
REMARK  104  A    between atoms: _237  and  _240
REMARK  105  A    between atoms: _240  and  _241
REMARK  106  A    between atoms: _244  and  _246
REMARK  107  A    between atoms: _246  and  _247
REMARK  108  A    between atoms: _250  and  _252
REMARK  109  A    between atoms: _252  and  _253
REMARK  110  A    between atoms: _252  and  _255
REMARK  111  A    between atoms: _255  and  _256
REMARK  112  A    between atoms: _261  and  _262
REMARK  113  A    between atoms: _261  and  _264
REMARK  114  A    between atoms: _264  and  _265
REMARK  115  A    between atoms: _267  and  _269
REMARK  116  A    between atoms: _269  and  _270
REMARK  117  A    between atoms: _273  and  _275
REMARK  118  A    between atoms: _275  and  _276
REMARK  119  A    between atoms: _275  and  _278
REMARK  120  A    between atoms: _278  and  _279
REMARK  121  A    between atoms: _282  and  _284
REMARK  122  A    between atoms: _284  and  _285
REMARK  123  A    between atoms: _284  and  _287
REMARK  124  A    between atoms: _287  and  _288
REMARK  125  A    between atoms: _291  and  _293
REMARK  126  A    between atoms: _293  and  _294
REMARK  127  A    between atoms: _293  and  _296
REMARK  128  A    between atoms: _296  and  _297
REMARK  129  A    between atoms: _297  and  _298
REMARK  130  A    between atoms: _298  and  _299
REMARK  131  A    between atoms: _308  and  _310
REMARK  132  A    between atoms: _310  and  _311
REMARK  133  A    between atoms: _310  and  _313
REMARK  134  A    between atoms: _316  and  _318
REMARK  135  A    between atoms: _318  and  _319
REMARK  136  A    between atoms: _318  and  _321
REMARK  137  A    between atoms: _321  and  _322
REMARK  138  A    between atoms: _322  and  _323
REMARK  139  A    between atoms: _323  and  _324
REMARK  140  A    between atoms: _333  and  _335
REMARK  141  A    between atoms: _335  and  _336
REMARK  142  A    between atoms: _338  and  _340
REMARK  143  A    between atoms: _340  and  _341
REMARK  144  A    between atoms: _340  and  _343
REMARK  145  A    between atoms: _343  and  _344
REMARK  146  A    between atoms: _350  and  _352
REMARK  147  A    between atoms: _352  and  _353
REMARK  148  A    between atoms: _353  and  _354
REMARK  149  A    between atoms: _353  and  _355
REMARK  150  A    between atoms: _354  and  MG_637
REMARK  151  A    between atoms: _355  and  _357
REMARK  152  A    between atoms: _357  and  _358
REMARK  153  A    between atoms: _357  and  _360
REMARK  154  A    between atoms: _360  and  _361
REMARK  155  A    between atoms: _361  and  _362
REMARK  156  A    between atoms: _362  and  _363
REMARK  157  A    between atoms: _372  and  _374
REMARK  158  A    between atoms: _374  and  _375
REMARK  159  A    between atoms: _374  and  _377
REMARK  160  A    between atoms: _377  and  _378
REMARK  161  A    between atoms: _378  and  _379
REMARK  162  A    between atoms: _384  and  _386
REMARK  163  A    between atoms: _386  and  _387
REMARK  164  A    between atoms: _386  and  _389
REMARK  165  A    between atoms: _389  and  _390
REMARK  166  A    between atoms: _390  and  _391
REMARK  167  A    between atoms: _391  and  _392
REMARK  168  A    between atoms: _392  and  _393
REMARK  169  A    between atoms: _397  and  _399
REMARK  170  A    between atoms: _399  and  _400
REMARK  171  A    between atoms: _399  and  _402
REMARK  172  A    between atoms: _402  and  _403
REMARK  173  A    between atoms: _403  and  _404
REMARK  174  A    between atoms: _409  and  _411
REMARK  175  A    between atoms: _411  and  _412
REMARK  176  A    between atoms: _411  and  _414
REMARK  177  A    between atoms: _414  and  _415
REMARK  178  A    between atoms: _418  and  _420
REMARK  179  A    between atoms: _420  and  _421
REMARK  180  A    between atoms: _420  and  _423
REMARK  181  A    between atoms: _423  and  _424
REMARK  182  A    between atoms: _424  and  _425
REMARK  183  A    between atoms: _428  and  _430
REMARK  184  A    between atoms: _430  and  _431
REMARK  185  A    between atoms: _430  and  _433
REMARK  186  A    between atoms: _434  and  _435
REMARK  187  A    between atoms: _435  and  _436
REMARK  188  A    between atoms: _445  and  _447
REMARK  189  A    between atoms: _447  and  _448
REMARK  190  A    between atoms: _447  and  _450
REMARK  191  A    between atoms: _450  and  _451
REMARK  192  A    between atoms: _454  and  _456
REMARK  193  A    between atoms: _456  and  _457
REMARK  194  A    between atoms: _456  and  _459
REMARK  195  A    between atoms: _459  and  _460
REMARK  196  A    between atoms: _460  and  _461
REMARK  197  A    between atoms: _464  and  _466
REMARK  198  A    between atoms: _466  and  _467
REMARK  199  A    between atoms: _466  and  _469
REMARK  200  A    between atoms: _469  and  _470
REMARK  201  A    between atoms: _476  and  _478
REMARK  202  A    between atoms: _478  and  _479
REMARK  203  A    between atoms: _478  and  _481
REMARK  204  A    between atoms: _481  and  _482
REMARK  205  A    between atoms: _485  and  _487
REMARK  206  A    between atoms: _487  and  _488
REMARK  207  A    between atoms: _487  and  _490
REMARK  208  A    between atoms: _490  and  _491
REMARK  209  A    between atoms: _491  and  _492
REMARK  210  A    between atoms: _497  and  _499
REMARK  211  A    between atoms: _499  and  _500
REMARK  212  A    between atoms: _499  and  _502
REMARK  213  A    between atoms: _502  and  _503
REMARK  214  A    between atoms: _503  and  _504
REMARK  215  A    between atoms: _504  and  _505
REMARK  216  A    between atoms: _505  and  _506
REMARK  217  A    between atoms: _510  and  _512
REMARK  218  A    between atoms: _512  and  _513
REMARK  219  A    between atoms: _512  and  _515
REMARK  220  A    between atoms: _515  and  _516
REMARK  221  A    between atoms: _519  and  _521
REMARK  222  A    between atoms: _521  and  _522
REMARK  223  A    between atoms: _521  and  _524
REMARK  224  A    between atoms: _524  and  _525
REMARK  225  A    between atoms: _525  and  _526
REMARK  226  A    between atoms: _526  and  _527
REMARK  227  A    between atoms: _527  and  _528
REMARK  228  A    between atoms: _532  and  _534
REMARK  229  A    between atoms: _534  and  _535
REMARK  230  A    between atoms: _534  and  _537
REMARK  231  A    between atoms: _537  and  _538
REMARK  232  A    between atoms: _538  and  _539
REMARK  233  A    between atoms: _539  and  _540
REMARK  234  A    between atoms: _549  and  _551
REMARK  235  A    between atoms: _551  and  _552
REMARK  236  A    between atoms: _551  and  _554
REMARK  237  A    between atoms: _554  and  _555
REMARK  238  A    between atoms: _558  and  _560
REMARK  239  A    between atoms: _560  and  _561
REMARK  240  A    between atoms: _563  and  _565
REMARK  241  A    between atoms: _565  and  _566
REMARK  242  A    between atoms: _565  and  _568
REMARK  243  A    between atoms: _568  and  _569
REMARK  244  A    between atoms: _569  and  _570
REMARK  245  A    between atoms: _573  and  _575
REMARK  246  A    between atoms: _575  and  _576
REMARK  247  A    between atoms: _575  and  _578
REMARK  248  A    between atoms: _578  and  _579
REMARK  249  A    between atoms: _584  and  _586
REMARK  250  A    between atoms: _586  and  _587
REMARK  251  A    between atoms: _589  and  _591
REMARK  252  A    between atoms: _591  and  _592
REMARK  253  A    between atoms: _591  and  _594
REMARK  254  A    between atoms: _594  and  _595
REMARK  255  A    between atoms: _598  and  _600
REMARK  256  A    between atoms: _600  and  _601
REMARK  257  A    between atoms: _603  and  _605
REMARK  258  A    between atoms: _605  and  _606
REMARK  259  A    between atoms: _605  and  _608
REMARK  260  A    between atoms: _608  and  _609
REMARK  261  A    between atoms: _609  and  _610
REMARK  262  A    between atoms: _610  and  _611
REMARK  263  A    between atoms: _611  and  _612
REMARK  264  A    between atoms: _616  and  _618
REMARK  265  A    between atoms: _618  and  _619
REMARK  266  A    between atoms: _618  and  _621
REMARK  267  A    between atoms: _621  and  _622
REMARK  268  A    between atoms: _625  and  _627
REMARK  269  A    between atoms: _627  and  _628
REMARK  270  A    between atoms: _627  and  _630
REMARK  271  A    between atoms: _630  and  _631
REMARK                            x       y       z     vdW  Elec       q    Type
REMARK                         _______ _______ _______ _____ _____    ______ ____
ROOT
ATOM      1  O   HOH     1      44.620 -15.160  62.307  0.00  0.00    +0.000 OA
ENDROOT
TORSDOF 0
REMARK  Name = ../refined-set-2016/2xbp/2xbp_pocket.pdb
REMARK  271 active torsions:
REMARK  status: ('A' for Active; 'I' for Inactive)
REMARK    1  A    between atoms: _1  and  _3
REMARK    2  A    between atoms: _3  and  _4
REMARK    3  A    between atoms: _3  and  _6
REMARK    4  A    between atoms: _6  and  _7
REMARK    5  A    between atoms: _7  and  _8
REMARK    6  A    between atoms: _8  and  _9
REMARK    7  A    between atoms: _9  and  _10
REMARK    8  A    between atoms: _14  and  _16
REMARK    9  A    between atoms: _16  and  _17
REMARK   10  A    between atoms: _16  and  _19
REMARK   11  A    between atoms: _19  and  _20
REMARK   12  A    between atoms: _20  and  _21
REMARK   13  A    between atoms: _21  and  _22
REMARK   14  A    between atoms: _22  and  _23
REMARK   15  A    between atoms: _27  and  _29
REMARK   16  A    between atoms: _29  and  _30
REMARK   17  A    between atoms: _29  and  _32
REMARK   18  A    between atoms: _32  and  _33
REMARK   19  A    between atoms: _36  and  _38
REMARK   20  A    between atoms: _38  and  _39
REMARK   21  A    between atoms: _38  and  _41
REMARK   22  A    between atoms: _41  and  _42
REMARK   23  A    between atoms: _45  and  _47
REMARK   24  A    between atoms: _47  and  _48
REMARK   25  A    between atoms: _47  and  _50
REMARK   26  A    between atoms: _53  and  _55
REMARK   27  A    between atoms: _55  and  _56
REMARK   28  A    between atoms: _58  and  _60
REMARK   29  A    between atoms: _60  and  _61
REMARK   30  A    between atoms: _60  and  _63
REMARK   31  A    between atoms: _64  and  _65
REMARK   32  A    between atoms: _67  and  _69
REMARK   33  A    between atoms: _69  and  _70
REMARK   34  A    between atoms: _69  and  _72
REMARK   35  A    between atoms: _72  and  _73
REMARK   36  A    between atoms: _76  and  _78
REMARK   37  A    between atoms: _78  and  _79
REMARK   38  A    between atoms: _78  and  _81
REMARK   39  A    between atoms: _84  and  _86
REMARK   40  A    between atoms: _86  and  _87
REMARK   41  A    between atoms: _86  and  _89
REMARK   42  A    between atoms: _89  and  _90
REMARK   43  A    between atoms: _93  and  _95
REMARK   44  A    between atoms: _95  and  _96
REMARK   45  A    between atoms: _95  and  _98
REMARK   46  A    between atoms: _98  and  _99
REMARK   47  A    between atoms: _99  and  _100
REMARK   48  A    between atoms: _103  and  _105
REMARK   49  A    between atoms: _105  and  _106
REMARK   50  A    between atoms: _105  and  _108
REMARK   51  A    between atoms: _108  and  _109
REMARK   52  A    between atoms: _112  and  _114
REMARK   53  A    between atoms: _114  and  _115
REMARK   54  A    between atoms: _114  and  _117
REMARK   55  A    between atoms: _120  and  _122
REMARK   56  A    between atoms: _122  and  _123
REMARK   57  A    between atoms: _122  and  _125
REMARK   58  A    between atoms: _128  and  _130
REMARK   59  A    between atoms: _130  and  _131
REMARK   60  A    between atoms: _130  and  _133
REMARK   61  A    between atoms: _134  and  _135
REMARK   62  A    between atoms: _138  and  _140
REMARK   63  A    between atoms: _140  and  _141
REMARK   64  A    between atoms: _140  and  _143
REMARK   65  A    between atoms: _143  and  _144
REMARK   66  A    between atoms: _144  and  _145
REMARK   67  A    between atoms: _150  and  _152
REMARK   68  A    between atoms: _152  and  _153
REMARK   69  A    between atoms: _152  and  _155
REMARK   70  A    between atoms: _155  and  _156
REMARK   71  A    between atoms: _159  and  _161
REMARK   72  A    between atoms: _161  and  _162
REMARK   73  A    between atoms: _161  and  _164
REMARK   74  A    between atoms: _164  and  _165
REMARK   75  A    between atoms: _168  and  _170
REMARK   76  A    between atoms: _170  and  _171
REMARK   77  A    between atoms: _170  and  _173
REMARK   78  A    between atoms: _173  and  _174
REMARK   79  A    between atoms: _174  and  _175
REMARK   80  A    between atoms: _175  and  _176
REMARK   81  A    between atoms: _185  and  _187
REMARK   82  A    between atoms: _187  and  _188
REMARK   83  A    between atoms: _187  and  _190
REMARK   84  A    between atoms: _190  and  _191
REMARK   85  A    between atoms: _194  and  _196
REMARK   86  A    between atoms: _196  and  _197
REMARK   87  A    between atoms: _196  and  _199
REMARK   88  A    between atoms: _199  and  _200
REMARK   89  A    between atoms: _200  and  _201
REMARK   90  A    between atoms: _201  and  _202
REMARK   91  A    between atoms: _211  and  _213
REMARK   92  A    between atoms: _213  and  _214
REMARK   93  A    between atoms: _213  and  _216
REMARK   94  A    between atoms: _216  and  _217
REMARK   95  A    between atoms: _220  and  _222
REMARK   96  A    between atoms: _222  and  _223
REMARK   97  A    between atoms: _225  and  _227
REMARK   98  A    between atoms: _227  and  _228
REMARK   99  A    between atoms: _227  and  _230
REMARK  100  A    between atoms: _230  and  _231
REMARK  101  A    between atoms: _231  and  _232
REMARK  102  A    between atoms: _235  and  _237
REMARK  103  A    between atoms: _237  and  _238
REMARK  104  A    between atoms: _237  and  _240
REMARK  105  A    between atoms: _240  and  _241
REMARK  106  A    between atoms: _244  and  _246
REMARK  107  A    between atoms: _246  and  _247
REMARK  108  A    between atoms: _250  and  _252
REMARK  109  A    between atoms: _252  and  _253
REMARK  110  A    between atoms: _252  and  _255
REMARK  111  A    between atoms: _255  and  _256
REMARK  112  A    between atoms: _261  and  _262
REMARK  113  A    between atoms: _261  and  _264
REMARK  114  A    between atoms: _264  and  _265
REMARK  115  A    between atoms: _267  and  _269
REMARK  116  A    between atoms: _269  and  _270
REMARK  117  A    between atoms: _273  and  _275
REMARK  118  A    between atoms: _275  and  _276
REMARK  119  A    between atoms: _275  and  _278
REMARK  120  A    between atoms: _278  and  _279
REMARK  121  A    between atoms: _282  and  _284
REMARK  122  A    between atoms: _284  and  _285
REMARK  123  A    between atoms: _284  and  _287
REMARK  124  A    between atoms: _287  and  _288
REMARK  125  A    between atoms: _291  and  _293
REMARK  126  A    between atoms: _293  and  _294
REMARK  127  A    between atoms: _293  and  _296
REMARK  128  A    between atoms: _296  and  _297
REMARK  129  A    between atoms: _297  and  _298
REMARK  130  A    between atoms: _298  and  _299
REMARK  131  A    between atoms: _308  and  _310
REMARK  132  A    between atoms: _310  and  _311
REMARK  133  A    between atoms: _310  and  _313
REMARK  134  A    between atoms: _316  and  _318
REMARK  135  A    between atoms: _318  and  _319
REMARK  136  A    between atoms: _318  and  _321
REMARK  137  A    between atoms: _321  and  _322
REMARK  138  A    between atoms: _322  and  _323
REMARK  139  A    between atoms: _323  and  _324
REMARK  140  A    between atoms: _333  and  _335
REMARK  141  A    between atoms: _335  and  _336
REMARK  142  A    between atoms: _338  and  _340
REMARK  143  A    between atoms: _340  and  _341
REMARK  144  A    between atoms: _340  and  _343
REMARK  145  A    between atoms: _343  and  _344
REMARK  146  A    between atoms: _350  and  _352
REMARK  147  A    between atoms: _352  and  _353
REMARK  148  A    between atoms: _353  and  _354
REMARK  149  A    between atoms: _353  and  _355
REMARK  150  A    between atoms: _354  and  MG_637
REMARK  151  A    between atoms: _355  and  _357
REMARK  152  A    between atoms: _357  and  _358
REMARK  153  A    between atoms: _357  and  _360
REMARK  154  A    between atoms: _360  and  _361
REMARK  155  A    between atoms: _361  and  _362
REMARK  156  A    between atoms: _362  and  _363
REMARK  157  A    between atoms: _372  and  _374
REMARK  158  A    between atoms: _374  and  _375
REMARK  159  A    between atoms: _374  and  _377
REMARK  160  A    between atoms: _377  and  _378
REMARK  161  A    between atoms: _378  and  _379
REMARK  162  A    between atoms: _384  and  _386
REMARK  163  A    between atoms: _386  and  _387
REMARK  164  A    between atoms: _386  and  _389
REMARK  165  A    between atoms: _389  and  _390
REMARK  166  A    between atoms: _390  and  _391
REMARK  167  A    between atoms: _391  and  _392
REMARK  168  A    between atoms: _392  and  _393
REMARK  169  A    between atoms: _397  and  _399
REMARK  170  A    between atoms: _399  and  _400
REMARK  171  A    between atoms: _399  and  _402
REMARK  172  A    between atoms: _402  and  _403
REMARK  173  A    between atoms: _403  and  _404
REMARK  174  A    between atoms: _409  and  _411
REMARK  175  A    between atoms: _411  and  _412
REMARK  176  A    between atoms: _411  and  _414
REMARK  177  A    between atoms: _414  and  _415
REMARK  178  A    between atoms: _418  and  _420
REMARK  179  A    between atoms: _420  and  _421
REMARK  180  A    between atoms: _420  and  _423
REMARK  181  A    between atoms: _423  and  _424
REMARK  182  A    between atoms: _424  and  _425
REMARK  183  A    between atoms: _428  and  _430
REMARK  184  A    between atoms: _430  and  _431
REMARK  185  A    between atoms: _430  and  _433
REMARK  186  A    between atoms: _434  and  _435
REMARK  187  A    between atoms: _435  and  _436
REMARK  188  A    between atoms: _445  and  _447
REMARK  189  A    between atoms: _447  and  _448
REMARK  190  A    between atoms: _447  and  _450
REMARK  191  A    between atoms: _450  and  _451
REMARK  192  A    between atoms: _454  and  _456
REMARK  193  A    between atoms: _456  and  _457
REMARK  194  A    between atoms: _456  and  _459
REMARK  195  A    between atoms: _459  and  _460
REMARK  196  A    between atoms: _460  and  _461
REMARK  197  A    between atoms: _464  and  _466
REMARK  198  A    between atoms: _466  and  _467
REMARK  199  A    between atoms: _466  and  _469
REMARK  200  A    between atoms: _469  and  _470
REMARK  201  A    between atoms: _476  and  _478
REMARK  202  A    between atoms: _478  and  _479
REMARK  203  A    between atoms: _478  and  _481
REMARK  204  A    between atoms: _481  and  _482
REMARK  205  A    between atoms: _485  and  _487
REMARK  206  A    between atoms: _487  and  _488
REMARK  207  A    between atoms: _487  and  _490
REMARK  208  A    between atoms: _490  and  _491
REMARK  209  A    between atoms: _491  and  _492
REMARK  210  A    between atoms: _497  and  _499
REMARK  211  A    between atoms: _499  and  _500
REMARK  212  A    between atoms: _499  and  _502
REMARK  213  A    between atoms: _502  and  _503
REMARK  214  A    between atoms: _503  and  _504
REMARK  215  A    between atoms: _504  and  _505
REMARK  216  A    between atoms: _505  and  _506
REMARK  217  A    between atoms: _510  and  _512
REMARK  218  A    between atoms: _512  and  _513
REMARK  219  A    between atoms: _512  and  _515
REMARK  220  A    between atoms: _515  and  _516
REMARK  221  A    between atoms: _519  and  _521
REMARK  222  A    between atoms: _521  and  _522
REMARK  223  A    between atoms: _521  and  _524
REMARK  224  A    between atoms: _524  and  _525
REMARK  225  A    between atoms: _525  and  _526
REMARK  226  A    between atoms: _526  and  _527
REMARK  227  A    between atoms: _527  and  _528
REMARK  228  A    between atoms: _532  and  _534
REMARK  229  A    between atoms: _534  and  _535
REMARK  230  A    between atoms: _534  and  _537
REMARK  231  A    between atoms: _537  and  _538
REMARK  232  A    between atoms: _538  and  _539
REMARK  233  A    between atoms: _539  and  _540
REMARK  234  A    between atoms: _549  and  _551
REMARK  235  A    between atoms: _551  and  _552
REMARK  236  A    between atoms: _551  and  _554
REMARK  237  A    between atoms: _554  and  _555
REMARK  238  A    between atoms: _558  and  _560
REMARK  239  A    between atoms: _560  and  _561
REMARK  240  A    between atoms: _563  and  _565
REMARK  241  A    between atoms: _565  and  _566
REMARK  242  A    between atoms: _565  and  _568
REMARK  243  A    between atoms: _568  and  _569
REMARK  244  A    between atoms: _569  and  _570
REMARK  245  A    between atoms: _573  and  _575
REMARK  246  A    between atoms: _575  and  _576
REMARK  247  A    between atoms: _575  and  _578
REMARK  248  A    between atoms: _578  and  _579
REMARK  249  A    between atoms: _584  and  _586
REMARK  250  A    between atoms: _586  and  _587
REMARK  251  A    between atoms: _589  and  _591
REMARK  252  A    between atoms: _591  and  _592
REMARK  253  A    between atoms: _591  and  _594
REMARK  254  A    between atoms: _594  and  _595
REMARK  255  A    between atoms: _598  and  _600
REMARK  256  A    between atoms: _600  and  _601
REMARK  257  A    between atoms: _603  and  _605
REMARK  258  A    between atoms: _605  and  _606
REMARK  259  A    between atoms: _605  and  _608
REMARK  260  A    between atoms: _608  and  _609
REMARK  261  A    between atoms: _609  and  _610
REMARK  262  A    between atoms: _610  and  _611
REMARK  263  A    between atoms: _611  and  _612
REMARK  264  A    between atoms: _616  and  _618
REMARK  265  A    between atoms: _618  and  _619
REMARK  266  A    between atoms: _618  and  _621
REMARK  267  A    between atoms: _621  and  _622
REMARK  268  A    between atoms: _625  and  _627
REMARK  269  A    between atoms: _627  and  _628
REMARK  270  A    between atoms: _627  and  _630
REMARK  271  A    between atoms: _630  and  _631
REMARK                            x       y       z     vdW  Elec       q    Type
REMARK                         _______ _______ _______ _____ _____    ______ ____
ROOT
ATOM      1  O   HOH     1      50.135 -18.292  61.516  0.00  0.00    +0.000 OA
ENDROOT
TORSDOF 0
REMARK  Name = ../refined-set-2016/2xbp/2xbp_pocket.pdb
REMARK  271 active torsions:
REMARK  status: ('A' for Active; 'I' for Inactive)
REMARK    1  A    between atoms: _1  and  _3
REMARK    2  A    between atoms: _3  and  _4
REMARK    3  A    between atoms: _3  and  _6
REMARK    4  A    between atoms: _6  and  _7
REMARK    5  A    between atoms: _7  and  _8
REMARK    6  A    between atoms: _8  and  _9
REMARK    7  A    between atoms: _9  and  _10
REMARK    8  A    between atoms: _14  and  _16
REMARK    9  A    between atoms: _16  and  _17
REMARK   10  A    between atoms: _16  and  _19
REMARK   11  A    between atoms: _19  and  _20
REMARK   12  A    between atoms: _20  and  _21
REMARK   13  A    between atoms: _21  and  _22
REMARK   14  A    between atoms: _22  and  _23
REMARK   15  A    between atoms: _27  and  _29
REMARK   16  A    between atoms: _29  and  _30
REMARK   17  A    between atoms: _29  and  _32
REMARK   18  A    between atoms: _32  and  _33
REMARK   19  A    between atoms: _36  and  _38
REMARK   20  A    between atoms: _38  and  _39
REMARK   21  A    between atoms: _38  and  _41
REMARK   22  A    between atoms: _41  and  _42
REMARK   23  A    between atoms: _45  and  _47
REMARK   24  A    between atoms: _47  and  _48
REMARK   25  A    between atoms: _47  and  _50
REMARK   26  A    between atoms: _53  and  _55
REMARK   27  A    between atoms: _55  and  _56
REMARK   28  A    between atoms: _58  and  _60
REMARK   29  A    between atoms: _60  and  _61
REMARK   30  A    between atoms: _60  and  _63
REMARK   31  A    between atoms: _64  and  _65
REMARK   32  A    between atoms: _67  and  _69
REMARK   33  A    between atoms: _69  and  _70
REMARK   34  A    between atoms: _69  and  _72
REMARK   35  A    between atoms: _72  and  _73
REMARK   36  A    between atoms: _76  and  _78
REMARK   37  A    between atoms: _78  and  _79
REMARK   38  A    between atoms: _78  and  _81
REMARK   39  A    between atoms: _84  and  _86
REMARK   40  A    between atoms: _86  and  _87
REMARK   41  A    between atoms: _86  and  _89
REMARK   42  A    between atoms: _89  and  _90
REMARK   43  A    between atoms: _93  and  _95
REMARK   44  A    between atoms: _95  and  _96
REMARK   45  A    between atoms: _95  and  _98
REMARK   46  A    between atoms: _98  and  _99
REMARK   47  A    between atoms: _99  and  _100
REMARK   48  A    between atoms: _103  and  _105
REMARK   49  A    between atoms: _105  and  _106
REMARK   50  A    between atoms: _105  and  _108
REMARK   51  A    between atoms: _108  and  _109
REMARK   52  A    between atoms: _112  and  _114
REMARK   53  A    between atoms: _114  and  _115
REMARK   54  A    between atoms: _114  and  _117
REMARK   55  A    between atoms: _120  and  _122
REMARK   56  A    between atoms: _122  and  _123
REMARK   57  A    between atoms: _122  and  _125
REMARK   58  A    between atoms: _128  and  _130
REMARK   59  A    between atoms: _130  and  _131
REMARK   60  A    between atoms: _130  and  _133
REMARK   61  A    between atoms: _134  and  _135
REMARK   62  A    between atoms: _138  and  _140
REMARK   63  A    between atoms: _140  and  _141
REMARK   64  A    between atoms: _140  and  _143
REMARK   65  A    between atoms: _143  and  _144
REMARK   66  A    between atoms: _144  and  _145
REMARK   67  A    between atoms: _150  and  _152
REMARK   68  A    between atoms: _152  and  _153
REMARK   69  A    between atoms: _152  and  _155
REMARK   70  A    between atoms: _155  and  _156
REMARK   71  A    between atoms: _159  and  _161
REMARK   72  A    between atoms: _161  and  _162
REMARK   73  A    between atoms: _161  and  _164
REMARK   74  A    between atoms: _164  and  _165
REMARK   75  A    between atoms: _168  and  _170
REMARK   76  A    between atoms: _170  and  _171
REMARK   77  A    between atoms: _170  and  _173
REMARK   78  A    between atoms: _173  and  _174
REMARK   79  A    between atoms: _174  and  _175
REMARK   80  A    between atoms: _175  and  _176
REMARK   81  A    between atoms: _185  and  _187
REMARK   82  A    between atoms: _187  and  _188
REMARK   83  A    between atoms: _187  and  _190
REMARK   84  A    between atoms: _190  and  _191
REMARK   85  A    between atoms: _194  and  _196
REMARK   86  A    between atoms: _196  and  _197
REMARK   87  A    between atoms: _196  and  _199
REMARK   88  A    between atoms: _199  and  _200
REMARK   89  A    between atoms: _200  and  _201
REMARK   90  A    between atoms: _201  and  _202
REMARK   91  A    between atoms: _211  and  _213
REMARK   92  A    between atoms: _213  and  _214
REMARK   93  A    between atoms: _213  and  _216
REMARK   94  A    between atoms: _216  and  _217
REMARK   95  A    between atoms: _220  and  _222
REMARK   96  A    between atoms: _222  and  _223
REMARK   97  A    between atoms: _225  and  _227
REMARK   98  A    between atoms: _227  and  _228
REMARK   99  A    between atoms: _227  and  _230
REMARK  100  A    between atoms: _230  and  _231
REMARK  101  A    between atoms: _231  and  _232
REMARK  102  A    between atoms: _235  and  _237
REMARK  103  A    between atoms: _237  and  _238
REMARK  104  A    between atoms: _237  and  _240
REMARK  105  A    between atoms: _240  and  _241
REMARK  106  A    between atoms: _244  and  _246
REMARK  107  A    between atoms: _246  and  _247
REMARK  108  A    between atoms: _250  and  _252
REMARK  109  A    between atoms: _252  and  _253
REMARK  110  A    between atoms: _252  and  _255
REMARK  111  A    between atoms: _255  and  _256
REMARK  112  A    between atoms: _261  and  _262
REMARK  113  A    between atoms: _261  and  _264
REMARK  114  A    between atoms: _264  and  _265
REMARK  115  A    between atoms: _267  and  _269
REMARK  116  A    between atoms: _269  and  _270
REMARK  117  A    between atoms: _273  and  _275
REMARK  118  A    between atoms: _275  and  _276
REMARK  119  A    between atoms: _275  and  _278
REMARK  120  A    between atoms: _278  and  _279
REMARK  121  A    between atoms: _282  and  _284
REMARK  122  A    between atoms: _284  and  _285
REMARK  123  A    between atoms: _284  and  _287
REMARK  124  A    between atoms: _287  and  _288
REMARK  125  A    between atoms: _291  and  _293
REMARK  126  A    between atoms: _293  and  _294
REMARK  127  A    between atoms: _293  and  _296
REMARK  128  A    between atoms: _296  and  _297
REMARK  129  A    between atoms: _297  and  _298
REMARK  130  A    between atoms: _298  and  _299
REMARK  131  A    between atoms: _308  and  _310
REMARK  132  A    between atoms: _310  and  _311
REMARK  133  A    between atoms: _310  and  _313
REMARK  134  A    between atoms: _316  and  _318
REMARK  135  A    between atoms: _318  and  _319
REMARK  136  A    between atoms: _318  and  _321
REMARK  137  A    between atoms: _321  and  _322
REMARK  138  A    between atoms: _322  and  _323
REMARK  139  A    between atoms: _323  and  _324
REMARK  140  A    between atoms: _333  and  _335
REMARK  141  A    between atoms: _335  and  _336
REMARK  142  A    between atoms: _338  and  _340
REMARK  143  A    between atoms: _340  and  _341
REMARK  144  A    between atoms: _340  and  _343
REMARK  145  A    between atoms: _343  and  _344
REMARK  146  A    between atoms: _350  and  _352
REMARK  147  A    between atoms: _352  and  _353
REMARK  148  A    between atoms: _353  and  _354
REMARK  149  A    between atoms: _353  and  _355
REMARK  150  A    between atoms: _354  and  MG_637
REMARK  151  A    between atoms: _355  and  _357
REMARK  152  A    between atoms: _357  and  _358
REMARK  153  A    between atoms: _357  and  _360
REMARK  154  A    between atoms: _360  and  _361
REMARK  155  A    between atoms: _361  and  _362
REMARK  156  A    between atoms: _362  and  _363
REMARK  157  A    between atoms: _372  and  _374
REMARK  158  A    between atoms: _374  and  _375
REMARK  159  A    between atoms: _374  and  _377
REMARK  160  A    between atoms: _377  and  _378
REMARK  161  A    between atoms: _378  and  _379
REMARK  162  A    between atoms: _384  and  _386
REMARK  163  A    between atoms: _386  and  _387
REMARK  164  A    between atoms: _386  and  _389
REMARK  165  A    between atoms: _389  and  _390
REMARK  166  A    between atoms: _390  and  _391
REMARK  167  A    between atoms: _391  and  _392
REMARK  168  A    between atoms: _392  and  _393
REMARK  169  A    between atoms: _397  and  _399
REMARK  170  A    between atoms: _399  and  _400
REMARK  171  A    between atoms: _399  and  _402
REMARK  172  A    between atoms: _402  and  _403
REMARK  173  A    between atoms: _403  and  _404
REMARK  174  A    between atoms: _409  and  _411
REMARK  175  A    between atoms: _411  and  _412
REMARK  176  A    between atoms: _411  and  _414
REMARK  177  A    between atoms: _414  and  _415
REMARK  178  A    between atoms: _418  and  _420
REMARK  179  A    between atoms: _420  and  _421
REMARK  180  A    between atoms: _420  and  _423
REMARK  181  A    between atoms: _423  and  _424
REMARK  182  A    between atoms: _424  and  _425
REMARK  183  A    between atoms: _428  and  _430
REMARK  184  A    between atoms: _430  and  _431
REMARK  185  A    between atoms: _430  and  _433
REMARK  186  A    between atoms: _434  and  _435
REMARK  187  A    between atoms: _435  and  _436
REMARK  188  A    between atoms: _445  and  _447
REMARK  189  A    between atoms: _447  and  _448
REMARK  190  A    between atoms: _447  and  _450
REMARK  191  A    between atoms: _450  and  _451
REMARK  192  A    between atoms: _454  and  _456
REMARK  193  A    between atoms: _456  and  _457
REMARK  194  A    between atoms: _456  and  _459
REMARK  195  A    between atoms: _459  and  _460
REMARK  196  A    between atoms: _460  and  _461
REMARK  197  A    between atoms: _464  and  _466
REMARK  198  A    between atoms: _466  and  _467
REMARK  199  A    between atoms: _466  and  _469
REMARK  200  A    between atoms: _469  and  _470
REMARK  201  A    between atoms: _476  and  _478
REMARK  202  A    between atoms: _478  and  _479
REMARK  203  A    between atoms: _478  and  _481
REMARK  204  A    between atoms: _481  and  _482
REMARK  205  A    between atoms: _485  and  _487
REMARK  206  A    between atoms: _487  and  _488
REMARK  207  A    between atoms: _487  and  _490
REMARK  208  A    between atoms: _490  and  _491
REMARK  209  A    between atoms: _491  and  _492
REMARK  210  A    between atoms: _497  and  _499
REMARK  211  A    between atoms: _499  and  _500
REMARK  212  A    between atoms: _499  and  _502
REMARK  213  A    between atoms: _502  and  _503
REMARK  214  A    between atoms: _503  and  _504
REMARK  215  A    between atoms: _504  and  _505
REMARK  216  A    between atoms: _505  and  _506
REMARK  217  A    between atoms: _510  and  _512
REMARK  218  A    between atoms: _512  and  _513
REMARK  219  A    between atoms: _512  and  _515
REMARK  220  A    between atoms: _515  and  _516
REMARK  221  A    between atoms: _519  and  _521
REMARK  222  A    between atoms: _521  and  _522
REMARK  223  A    between atoms: _521  and  _524
REMARK  224  A    between atoms: _524  and  _525
REMARK  225  A    between atoms: _525  and  _526
REMARK  226  A    between atoms: _526  and  _527
REMARK  227  A    between atoms: _527  and  _528
REMARK  228  A    between atoms: _532  and  _534
REMARK  229  A    between atoms: _534  and  _535
REMARK  230  A    between atoms: _534  and  _537
REMARK  231  A    between atoms: _537  and  _538
REMARK  232  A    between atoms: _538  and  _539
REMARK  233  A    between atoms: _539  and  _540
REMARK  234  A    between atoms: _549  and  _551
REMARK  235  A    between atoms: _551  and  _552
REMARK  236  A    between atoms: _551  and  _554
REMARK  237  A    between atoms: _554  and  _555
REMARK  238  A    between atoms: _558  and  _560
REMARK  239  A    between atoms: _560  and  _561
REMARK  240  A    between atoms: _563  and  _565
REMARK  241  A    between atoms: _565  and  _566
REMARK  242  A    between atoms: _565  and  _568
REMARK  243  A    between atoms: _568  and  _569
REMARK  244  A    between atoms: _569  and  _570
REMARK  245  A    between atoms: _573  and  _575
REMARK  246  A    between atoms: _575  and  _576
REMARK  247  A    between atoms: _575  and  _578
REMARK  248  A    between atoms: _578  and  _579
REMARK  249  A    between atoms: _584  and  _586
REMARK  250  A    between atoms: _586  and  _587
REMARK  251  A    between atoms: _589  and  _591
REMARK  252  A    between atoms: _591  and  _592
REMARK  253  A    between atoms: _591  and  _594
REMARK  254  A    between atoms: _594  and  _595
REMARK  255  A    between atoms: _598  and  _600
REMARK  256  A    between atoms: _600  and  _601
REMARK  257  A    between atoms: _603  and  _605
REMARK  258  A    between atoms: _605  and  _606
REMARK  259  A    between atoms: _605  and  _608
REMARK  260  A    between atoms: _608  and  _609
REMARK  261  A    between atoms: _609  and  _610
REMARK  262  A    between atoms: _610  and  _611
REMARK  263  A    between atoms: _611  and  _612
REMARK  264  A    between atoms: _616  and  _618
REMARK  265  A    between atoms: _618  and  _619
REMARK  266  A    between atoms: _618  and  _621
REMARK  267  A    between atoms: _621  and  _622
REMARK  268  A    between atoms: _625  and  _627
REMARK  269  A    between atoms: _627  and  _628
REMARK  270  A    between atoms: _627  and  _630
REMARK  271  A    between atoms: _630  and  _631
REMARK                            x       y       z     vdW  Elec       q    Type
REMARK                         _______ _______ _______ _____ _____    ______ ____
ROOT
ATOM      1  O   HOH     1      40.353 -15.583  62.999  0.00  0.00    +0.000 OA
ENDROOT
TORSDOF 0
REMARK  Name = ../refined-set-2016/2xbp/2xbp_pocket.pdb
REMARK  271 active torsions:
REMARK  status: ('A' for Active; 'I' for Inactive)
REMARK    1  A    between atoms: _1  and  _3
REMARK    2  A    between atoms: _3  and  _4
REMARK    3  A    between atoms: _3  and  _6
REMARK    4  A    between atoms: _6  and  _7
REMARK    5  A    between atoms: _7  and  _8
REMARK    6  A    between atoms: _8  and  _9
REMARK    7  A    between atoms: _9  and  _10
REMARK    8  A    between atoms: _14  and  _16
REMARK    9  A    between atoms: _16  and  _17
REMARK   10  A    between atoms: _16  and  _19
REMARK   11  A    between atoms: _19  and  _20
REMARK   12  A    between atoms: _20  and  _21
REMARK   13  A    between atoms: _21  and  _22
REMARK   14  A    between atoms: _22  and  _23
REMARK   15  A    between atoms: _27  and  _29
REMARK   16  A    between atoms: _29  and  _30
REMARK   17  A    between atoms: _29  and  _32
REMARK   18  A    between atoms: _32  and  _33
REMARK   19  A    between atoms: _36  and  _38
REMARK   20  A    between atoms: _38  and  _39
REMARK   21  A    between atoms: _38  and  _41
REMARK   22  A    between atoms: _41  and  _42
REMARK   23  A    between atoms: _45  and  _47
REMARK   24  A    between atoms: _47  and  _48
REMARK   25  A    between atoms: _47  and  _50
REMARK   26  A    between atoms: _53  and  _55
REMARK   27  A    between atoms: _55  and  _56
REMARK   28  A    between atoms: _58  and  _60
REMARK   29  A    between atoms: _60  and  _61
REMARK   30  A    between atoms: _60  and  _63
REMARK   31  A    between atoms: _64  and  _65
REMARK   32  A    between atoms: _67  and  _69
REMARK   33  A    between atoms: _69  and  _70
REMARK   34  A    between atoms: _69  and  _72
REMARK   35  A    between atoms: _72  and  _73
REMARK   36  A    between atoms: _76  and  _78
REMARK   37  A    between atoms: _78  and  _79
REMARK   38  A    between atoms: _78  and  _81
REMARK   39  A    between atoms: _84  and  _86
REMARK   40  A    between atoms: _86  and  _87
REMARK   41  A    between atoms: _86  and  _89
REMARK   42  A    between atoms: _89  and  _90
REMARK   43  A    between atoms: _93  and  _95
REMARK   44  A    between atoms: _95  and  _96
REMARK   45  A    between atoms: _95  and  _98
REMARK   46  A    between atoms: _98  and  _99
REMARK   47  A    between atoms: _99  and  _100
REMARK   48  A    between atoms: _103  and  _105
REMARK   49  A    between atoms: _105  and  _106
REMARK   50  A    between atoms: _105  and  _108
REMARK   51  A    between atoms: _108  and  _109
REMARK   52  A    between atoms: _112  and  _114
REMARK   53  A    between atoms: _114  and  _115
REMARK   54  A    between atoms: _114  and  _117
REMARK   55  A    between atoms: _120  and  _122
REMARK   56  A    between atoms: _122  and  _123
REMARK   57  A    between atoms: _122  and  _125
REMARK   58  A    between atoms: _128  and  _130
REMARK   59  A    between atoms: _130  and  _131
REMARK   60  A    between atoms: _130  and  _133
REMARK   61  A    between atoms: _134  and  _135
REMARK   62  A    between atoms: _138  and  _140
REMARK   63  A    between atoms: _140  and  _141
REMARK   64  A    between atoms: _140  and  _143
REMARK   65  A    between atoms: _143  and  _144
REMARK   66  A    between atoms: _144  and  _145
REMARK   67  A    between atoms: _150  and  _152
REMARK   68  A    between atoms: _152  and  _153
REMARK   69  A    between atoms: _152  and  _155
REMARK   70  A    between atoms: _155  and  _156
REMARK   71  A    between atoms: _159  and  _161
REMARK   72  A    between atoms: _161  and  _162
REMARK   73  A    between atoms: _161  and  _164
REMARK   74  A    between atoms: _164  and  _165
REMARK   75  A    between atoms: _168  and  _170
REMARK   76  A    between atoms: _170  and  _171
REMARK   77  A    between atoms: _170  and  _173
REMARK   78  A    between atoms: _173  and  _174
REMARK   79  A    between atoms: _174  and  _175
REMARK   80  A    between atoms: _175  and  _176
REMARK   81  A    between atoms: _185  and  _187
REMARK   82  A    between atoms: _187  and  _188
REMARK   83  A    between atoms: _187  and  _190
REMARK   84  A    between atoms: _190  and  _191
REMARK   85  A    between atoms: _194  and  _196
REMARK   86  A    between atoms: _196  and  _197
REMARK   87  A    between atoms: _196  and  _199
REMARK   88  A    between atoms: _199  and  _200
REMARK   89  A    between atoms: _200  and  _201
REMARK   90  A    between atoms: _201  and  _202
REMARK   91  A    between atoms: _211  and  _213
REMARK   92  A    between atoms: _213  and  _214
REMARK   93  A    between atoms: _213  and  _216
REMARK   94  A    between atoms: _216  and  _217
REMARK   95  A    between atoms: _220  and  _222
REMARK   96  A    between atoms: _222  and  _223
REMARK   97  A    between atoms: _225  and  _227
REMARK   98  A    between atoms: _227  and  _228
REMARK   99  A    between atoms: _227  and  _230
REMARK  100  A    between atoms: _230  and  _231
REMARK  101  A    between atoms: _231  and  _232
REMARK  102  A    between atoms: _235  and  _237
REMARK  103  A    between atoms: _237  and  _238
REMARK  104  A    between atoms: _237  and  _240
REMARK  105  A    between atoms: _240  and  _241
REMARK  106  A    between atoms: _244  and  _246
REMARK  107  A    between atoms: _246  and  _247
REMARK  108  A    between atoms: _250  and  _252
REMARK  109  A    between atoms: _252  and  _253
REMARK  110  A    between atoms: _252  and  _255
REMARK  111  A    between atoms: _255  and  _256
REMARK  112  A    between atoms: _261  and  _262
REMARK  113  A    between atoms: _261  and  _264
REMARK  114  A    between atoms: _264  and  _265
REMARK  115  A    between atoms: _267  and  _269
REMARK  116  A    between atoms: _269  and  _270
REMARK  117  A    between atoms: _273  and  _275
REMARK  118  A    between atoms: _275  and  _276
REMARK  119  A    between atoms: _275  and  _278
REMARK  120  A    between atoms: _278  and  _279
REMARK  121  A    between atoms: _282  and  _284
REMARK  122  A    between atoms: _284  and  _285
REMARK  123  A    between atoms: _284  and  _287
REMARK  124  A    between atoms: _287  and  _288
REMARK  125  A    between atoms: _291  and  _293
REMARK  126  A    between atoms: _293  and  _294
REMARK  127  A    between atoms: _293  and  _296
REMARK  128  A    between atoms: _296  and  _297
REMARK  129  A    between atoms: _297  and  _298
REMARK  130  A    between atoms: _298  and  _299
REMARK  131  A    between atoms: _308  and  _310
REMARK  132  A    between atoms: _310  and  _311
REMARK  133  A    between atoms: _310  and  _313
REMARK  134  A    between atoms: _316  and  _318
REMARK  135  A    between atoms: _318  and  _319
REMARK  136  A    between atoms: _318  and  _321
REMARK  137  A    between atoms: _321  and  _322
REMARK  138  A    between atoms: _322  and  _323
REMARK  139  A    between atoms: _323  and  _324
REMARK  140  A    between atoms: _333  and  _335
REMARK  141  A    between atoms: _335  and  _336
REMARK  142  A    between atoms: _338  and  _340
REMARK  143  A    between atoms: _340  and  _341
REMARK  144  A    between atoms: _340  and  _343
REMARK  145  A    between atoms: _343  and  _344
REMARK  146  A    between atoms: _350  and  _352
REMARK  147  A    between atoms: _352  and  _353
REMARK  148  A    between atoms: _353  and  _354
REMARK  149  A    between atoms: _353  and  _355
REMARK  150  A    between atoms: _354  and  MG_637
REMARK  151  A    between atoms: _355  and  _357
REMARK  152  A    between atoms: _357  and  _358
REMARK  153  A    between atoms: _357  and  _360
REMARK  154  A    between atoms: _360  and  _361
REMARK  155  A    between atoms: _361  and  _362
REMARK  156  A    between atoms: _362  and  _363
REMARK  157  A    between atoms: _372  and  _374
REMARK  158  A    between atoms: _374  and  _375
REMARK  159  A    between atoms: _374  and  _377
REMARK  160  A    between atoms: _377  and  _378
REMARK  161  A    between atoms: _378  and  _379
REMARK  162  A    between atoms: _384  and  _386
REMARK  163  A    between atoms: _386  and  _387
REMARK  164  A    between atoms: _386  and  _389
REMARK  165  A    between atoms: _389  and  _390
REMARK  166  A    between atoms: _390  and  _391
REMARK  167  A    between atoms: _391  and  _392
REMARK  168  A    between atoms: _392  and  _393
REMARK  169  A    between atoms: _397  and  _399
REMARK  170  A    between atoms: _399  and  _400
REMARK  171  A    between atoms: _399  and  _402
REMARK  172  A    between atoms: _402  and  _403
REMARK  173  A    between atoms: _403  and  _404
REMARK  174  A    between atoms: _409  and  _411
REMARK  175  A    between atoms: _411  and  _412
REMARK  176  A    between atoms: _411  and  _414
REMARK  177  A    between atoms: _414  and  _415
REMARK  178  A    between atoms: _418  and  _420
REMARK  179  A    between atoms: _420  and  _421
REMARK  180  A    between atoms: _420  and  _423
REMARK  181  A    between atoms: _423  and  _424
REMARK  182  A    between atoms: _424  and  _425
REMARK  183  A    between atoms: _428  and  _430
REMARK  184  A    between atoms: _430  and  _431
REMARK  185  A    between atoms: _430  and  _433
REMARK  186  A    between atoms: _434  and  _435
REMARK  187  A    between atoms: _435  and  _436
REMARK  188  A    between atoms: _445  and  _447
REMARK  189  A    between atoms: _447  and  _448
REMARK  190  A    between atoms: _447  and  _450
REMARK  191  A    between atoms: _450  and  _451
REMARK  192  A    between atoms: _454  and  _456
REMARK  193  A    between atoms: _456  and  _457
REMARK  194  A    between atoms: _456  and  _459
REMARK  195  A    between atoms: _459  and  _460
REMARK  196  A    between atoms: _460  and  _461
REMARK  197  A    between atoms: _464  and  _466
REMARK  198  A    between atoms: _466  and  _467
REMARK  199  A    between atoms: _466  and  _469
REMARK  200  A    between atoms: _469  and  _470
REMARK  201  A    between atoms: _476  and  _478
REMARK  202  A    between atoms: _478  and  _479
REMARK  203  A    between atoms: _478  and  _481
REMARK  204  A    between atoms: _481  and  _482
REMARK  205  A    between atoms: _485  and  _487
REMARK  206  A    between atoms: _487  and  _488
REMARK  207  A    between atoms: _487  and  _490
REMARK  208  A    between atoms: _490  and  _491
REMARK  209  A    between atoms: _491  and  _492
REMARK  210  A    between atoms: _497  and  _499
REMARK  211  A    between atoms: _499  and  _500
REMARK  212  A    between atoms: _499  and  _502
REMARK  213  A    between atoms: _502  and  _503
REMARK  214  A    between atoms: _503  and  _504
REMARK  215  A    between atoms: _504  and  _505
REMARK  216  A    between atoms: _505  and  _506
REMARK  217  A    between atoms: _510  and  _512
REMARK  218  A    between atoms: _512  and  _513
REMARK  219  A    between atoms: _512  and  _515
REMARK  220  A    between atoms: _515  and  _516
REMARK  221  A    between atoms: _519  and  _521
REMARK  222  A    between atoms: _521  and  _522
REMARK  223  A    between atoms: _521  and  _524
REMARK  224  A    between atoms: _524  and  _525
REMARK  225  A    between atoms: _525  and  _526
REMARK  226  A    between atoms: _526  and  _527
REMARK  227  A    between atoms: _527  and  _528
REMARK  228  A    between atoms: _532  and  _534
REMARK  229  A    between atoms: _534  and  _535
REMARK  230  A    between atoms: _534  and  _537
REMARK  231  A    between atoms: _537  and  _538
REMARK  232  A    between atoms: _538  and  _539
REMARK  233  A    between atoms: _539  and  _540
REMARK  234  A    between atoms: _549  and  _551
REMARK  235  A    between atoms: _551  and  _552
REMARK  236  A    between atoms: _551  and  _554
REMARK  237  A    between atoms: _554  and  _555
REMARK  238  A    between atoms: _558  and  _560
REMARK  239  A    between atoms: _560  and  _561
REMARK  240  A    between atoms: _563  and  _565
REMARK  241  A    between atoms: _565  and  _566
REMARK  242  A    between atoms: _565  and  _568
REMARK  243  A    between atoms: _568  and  _569
REMARK  244  A    between atoms: _569  and  _570
REMARK  245  A    between atoms: _573  and  _575
REMARK  246  A    between atoms: _575  and  _576
REMARK  247  A    between atoms: _575  and  _578
REMARK  248  A    between atoms: _578  and  _579
REMARK  249  A    between atoms: _584  and  _586
REMARK  250  A    between atoms: _586  and  _587
REMARK  251  A    between atoms: _589  and  _591
REMARK  252  A    between atoms: _591  and  _592
REMARK  253  A    between atoms: _591  and  _594
REMARK  254  A    between atoms: _594  and  _595
REMARK  255  A    between atoms: _598  and  _600
REMARK  256  A    between atoms: _600  and  _601
REMARK  257  A    between atoms: _603  and  _605
REMARK  258  A    between atoms: _605  and  _606
REMARK  259  A    between atoms: _605  and  _608
REMARK  260  A    between atoms: _608  and  _609
REMARK  261  A    between atoms: _609  and  _610
REMARK  262  A    between atoms: _610  and  _611
REMARK  263  A    between atoms: _611  and  _612
REMARK  264  A    between atoms: _616  and  _618
REMARK  265  A    between atoms: _618  and  _619
REMARK  266  A    between atoms: _618  and  _621
REMARK  267  A    between atoms: _621  and  _622
REMARK  268  A    between atoms: _625  and  _627
REMARK  269  A    between atoms: _627  and  _628
REMARK  270  A    between atoms: _627  and  _630
REMARK  271  A    between atoms: _630  and  _631
REMARK                            x       y       z     vdW  Elec       q    Type
REMARK                         _______ _______ _______ _____ _____    ______ ____
ROOT
ATOM      1  O   HOH     1      45.619 -20.680  55.991  0.00  0.00    +0.000 OA
ENDROOT
TORSDOF 0
REMARK  Name = ../refined-set-2016/2xbp/2xbp_pocket.pdb
REMARK  271 active torsions:
REMARK  status: ('A' for Active; 'I' for Inactive)
REMARK    1  A    between atoms: _1  and  _3
REMARK    2  A    between atoms: _3  and  _4
REMARK    3  A    between atoms: _3  and  _6
REMARK    4  A    between atoms: _6  and  _7
REMARK    5  A    between atoms: _7  and  _8
REMARK    6  A    between atoms: _8  and  _9
REMARK    7  A    between atoms: _9  and  _10
REMARK    8  A    between atoms: _14  and  _16
REMARK    9  A    between atoms: _16  and  _17
REMARK   10  A    between atoms: _16  and  _19
REMARK   11  A    between atoms: _19  and  _20
REMARK   12  A    between atoms: _20  and  _21
REMARK   13  A    between atoms: _21  and  _22
REMARK   14  A    between atoms: _22  and  _23
REMARK   15  A    between atoms: _27  and  _29
REMARK   16  A    between atoms: _29  and  _30
REMARK   17  A    between atoms: _29  and  _32
REMARK   18  A    between atoms: _32  and  _33
REMARK   19  A    between atoms: _36  and  _38
REMARK   20  A    between atoms: _38  and  _39
REMARK   21  A    between atoms: _38  and  _41
REMARK   22  A    between atoms: _41  and  _42
REMARK   23  A    between atoms: _45  and  _47
REMARK   24  A    between atoms: _47  and  _48
REMARK   25  A    between atoms: _47  and  _50
REMARK   26  A    between atoms: _53  and  _55
REMARK   27  A    between atoms: _55  and  _56
REMARK   28  A    between atoms: _58  and  _60
REMARK   29  A    between atoms: _60  and  _61
REMARK   30  A    between atoms: _60  and  _63
REMARK   31  A    between atoms: _64  and  _65
REMARK   32  A    between atoms: _67  and  _69
REMARK   33  A    between atoms: _69  and  _70
REMARK   34  A    between atoms: _69  and  _72
REMARK   35  A    between atoms: _72  and  _73
REMARK   36  A    between atoms: _76  and  _78
REMARK   37  A    between atoms: _78  and  _79
REMARK   38  A    between atoms: _78  and  _81
REMARK   39  A    between atoms: _84  and  _86
REMARK   40  A    between atoms: _86  and  _87
REMARK   41  A    between atoms: _86  and  _89
REMARK   42  A    between atoms: _89  and  _90
REMARK   43  A    between atoms: _93  and  _95
REMARK   44  A    between atoms: _95  and  _96
REMARK   45  A    between atoms: _95  and  _98
REMARK   46  A    between atoms: _98  and  _99
REMARK   47  A    between atoms: _99  and  _100
REMARK   48  A    between atoms: _103  and  _105
REMARK   49  A    between atoms: _105  and  _106
REMARK   50  A    between atoms: _105  and  _108
REMARK   51  A    between atoms: _108  and  _109
REMARK   52  A    between atoms: _112  and  _114
REMARK   53  A    between atoms: _114  and  _115
REMARK   54  A    between atoms: _114  and  _117
REMARK   55  A    between atoms: _120  and  _122
REMARK   56  A    between atoms: _122  and  _123
REMARK   57  A    between atoms: _122  and  _125
REMARK   58  A    between atoms: _128  and  _130
REMARK   59  A    between atoms: _130  and  _131
REMARK   60  A    between atoms: _130  and  _133
REMARK   61  A    between atoms: _134  and  _135
REMARK   62  A    between atoms: _138  and  _140
REMARK   63  A    between atoms: _140  and  _141
REMARK   64  A    between atoms: _140  and  _143
REMARK   65  A    between atoms: _143  and  _144
REMARK   66  A    between atoms: _144  and  _145
REMARK   67  A    between atoms: _150  and  _152
REMARK   68  A    between atoms: _152  and  _153
REMARK   69  A    between atoms: _152  and  _155
REMARK   70  A    between atoms: _155  and  _156
REMARK   71  A    between atoms: _159  and  _161
REMARK   72  A    between atoms: _161  and  _162
REMARK   73  A    between atoms: _161  and  _164
REMARK   74  A    between atoms: _164  and  _165
REMARK   75  A    between atoms: _168  and  _170
REMARK   76  A    between atoms: _170  and  _171
REMARK   77  A    between atoms: _170  and  _173
REMARK   78  A    between atoms: _173  and  _174
REMARK   79  A    between atoms: _174  and  _175
REMARK   80  A    between atoms: _175  and  _176
REMARK   81  A    between atoms: _185  and  _187
REMARK   82  A    between atoms: _187  and  _188
REMARK   83  A    between atoms: _187  and  _190
REMARK   84  A    between atoms: _190  and  _191
REMARK   85  A    between atoms: _194  and  _196
REMARK   86  A    between atoms: _196  and  _197
REMARK   87  A    between atoms: _196  and  _199
REMARK   88  A    between atoms: _199  and  _200
REMARK   89  A    between atoms: _200  and  _201
REMARK   90  A    between atoms: _201  and  _202
REMARK   91  A    between atoms: _211  and  _213
REMARK   92  A    between atoms: _213  and  _214
REMARK   93  A    between atoms: _213  and  _216
REMARK   94  A    between atoms: _216  and  _217
REMARK   95  A    between atoms: _220  and  _222
REMARK   96  A    between atoms: _222  and  _223
REMARK   97  A    between atoms: _225  and  _227
REMARK   98  A    between atoms: _227  and  _228
REMARK   99  A    between atoms: _227  and  _230
REMARK  100  A    between atoms: _230  and  _231
REMARK  101  A    between atoms: _231  and  _232
REMARK  102  A    between atoms: _235  and  _237
REMARK  103  A    between atoms: _237  and  _238
REMARK  104  A    between atoms: _237  and  _240
REMARK  105  A    between atoms: _240  and  _241
REMARK  106  A    between atoms: _244  and  _246
REMARK  107  A    between atoms: _246  and  _247
REMARK  108  A    between atoms: _250  and  _252
REMARK  109  A    between atoms: _252  and  _253
REMARK  110  A    between atoms: _252  and  _255
REMARK  111  A    between atoms: _255  and  _256
REMARK  112  A    between atoms: _261  and  _262
REMARK  113  A    between atoms: _261  and  _264
REMARK  114  A    between atoms: _264  and  _265
REMARK  115  A    between atoms: _267  and  _269
REMARK  116  A    between atoms: _269  and  _270
REMARK  117  A    between atoms: _273  and  _275
REMARK  118  A    between atoms: _275  and  _276
REMARK  119  A    between atoms: _275  and  _278
REMARK  120  A    between atoms: _278  and  _279
REMARK  121  A    between atoms: _282  and  _284
REMARK  122  A    between atoms: _284  and  _285
REMARK  123  A    between atoms: _284  and  _287
REMARK  124  A    between atoms: _287  and  _288
REMARK  125  A    between atoms: _291  and  _293
REMARK  126  A    between atoms: _293  and  _294
REMARK  127  A    between atoms: _293  and  _296
REMARK  128  A    between atoms: _296  and  _297
REMARK  129  A    between atoms: _297  and  _298
REMARK  130  A    between atoms: _298  and  _299
REMARK  131  A    between atoms: _308  and  _310
REMARK  132  A    between atoms: _310  and  _311
REMARK  133  A    between atoms: _310  and  _313
REMARK  134  A    between atoms: _316  and  _318
REMARK  135  A    between atoms: _318  and  _319
REMARK  136  A    between atoms: _318  and  _321
REMARK  137  A    between atoms: _321  and  _322
REMARK  138  A    between atoms: _322  and  _323
REMARK  139  A    between atoms: _323  and  _324
REMARK  140  A    between atoms: _333  and  _335
REMARK  141  A    between atoms: _335  and  _336
REMARK  142  A    between atoms: _338  and  _340
REMARK  143  A    between atoms: _340  and  _341
REMARK  144  A    between atoms: _340  and  _343
REMARK  145  A    between atoms: _343  and  _344
REMARK  146  A    between atoms: _350  and  _352
REMARK  147  A    between atoms: _352  and  _353
REMARK  148  A    between atoms: _353  and  _354
REMARK  149  A    between atoms: _353  and  _355
REMARK  150  A    between atoms: _354  and  MG_637
REMARK  151  A    between atoms: _355  and  _357
REMARK  152  A    between atoms: _357  and  _358
REMARK  153  A    between atoms: _357  and  _360
REMARK  154  A    between atoms: _360  and  _361
REMARK  155  A    between atoms: _361  and  _362
REMARK  156  A    between atoms: _362  and  _363
REMARK  157  A    between atoms: _372  and  _374
REMARK  158  A    between atoms: _374  and  _375
REMARK  159  A    between atoms: _374  and  _377
REMARK  160  A    between atoms: _377  and  _378
REMARK  161  A    between atoms: _378  and  _379
REMARK  162  A    between atoms: _384  and  _386
REMARK  163  A    between atoms: _386  and  _387
REMARK  164  A    between atoms: _386  and  _389
REMARK  165  A    between atoms: _389  and  _390
REMARK  166  A    between atoms: _390  and  _391
REMARK  167  A    between atoms: _391  and  _392
REMARK  168  A    between atoms: _392  and  _393
REMARK  169  A    between atoms: _397  and  _399
REMARK  170  A    between atoms: _399  and  _400
REMARK  171  A    between atoms: _399  and  _402
REMARK  172  A    between atoms: _402  and  _403
REMARK  173  A    between atoms: _403  and  _404
REMARK  174  A    between atoms: _409  and  _411
REMARK  175  A    between atoms: _411  and  _412
REMARK  176  A    between atoms: _411  and  _414
REMARK  177  A    between atoms: _414  and  _415
REMARK  178  A    between atoms: _418  and  _420
REMARK  179  A    between atoms: _420  and  _421
REMARK  180  A    between atoms: _420  and  _423
REMARK  181  A    between atoms: _423  and  _424
REMARK  182  A    between atoms: _424  and  _425
REMARK  183  A    between atoms: _428  and  _430
REMARK  184  A    between atoms: _430  and  _431
REMARK  185  A    between atoms: _430  and  _433
REMARK  186  A    between atoms: _434  and  _435
REMARK  187  A    between atoms: _435  and  _436
REMARK  188  A    between atoms: _445  and  _447
REMARK  189  A    between atoms: _447  and  _448
REMARK  190  A    between atoms: _447  and  _450
REMARK  191  A    between atoms: _450  and  _451
REMARK  192  A    between atoms: _454  and  _456
REMARK  193  A    between atoms: _456  and  _457
REMARK  194  A    between atoms: _456  and  _459
REMARK  195  A    between atoms: _459  and  _460
REMARK  196  A    between atoms: _460  and  _461
REMARK  197  A    between atoms: _464  and  _466
REMARK  198  A    between atoms: _466  and  _467
REMARK  199  A    between atoms: _466  and  _469
REMARK  200  A    between atoms: _469  and  _470
REMARK  201  A    between atoms: _476  and  _478
REMARK  202  A    between atoms: _478  and  _479
REMARK  203  A    between atoms: _478  and  _481
REMARK  204  A    between atoms: _481  and  _482
REMARK  205  A    between atoms: _485  and  _487
REMARK  206  A    between atoms: _487  and  _488
REMARK  207  A    between atoms: _487  and  _490
REMARK  208  A    between atoms: _490  and  _491
REMARK  209  A    between atoms: _491  and  _492
REMARK  210  A    between atoms: _497  and  _499
REMARK  211  A    between atoms: _499  and  _500
REMARK  212  A    between atoms: _499  and  _502
REMARK  213  A    between atoms: _502  and  _503
REMARK  214  A    between atoms: _503  and  _504
REMARK  215  A    between atoms: _504  and  _505
REMARK  216  A    between atoms: _505  and  _506
REMARK  217  A    between atoms: _510  and  _512
REMARK  218  A    between atoms: _512  and  _513
REMARK  219  A    between atoms: _512  and  _515
REMARK  220  A    between atoms: _515  and  _516
REMARK  221  A    between atoms: _519  and  _521
REMARK  222  A    between atoms: _521  and  _522
REMARK  223  A    between atoms: _521  and  _524
REMARK  224  A    between atoms: _524  and  _525
REMARK  225  A    between atoms: _525  and  _526
REMARK  226  A    between atoms: _526  and  _527
REMARK  227  A    between atoms: _527  and  _528
REMARK  228  A    between atoms: _532  and  _534
REMARK  229  A    between atoms: _534  and  _535
REMARK  230  A    between atoms: _534  and  _537
REMARK  231  A    between atoms: _537  and  _538
REMARK  232  A    between atoms: _538  and  _539
REMARK  233  A    between atoms: _539  and  _540
REMARK  234  A    between atoms: _549  and  _551
REMARK  235  A    between atoms: _551  and  _552
REMARK  236  A    between atoms: _551  and  _554
REMARK  237  A    between atoms: _554  and  _555
REMARK  238  A    between atoms: _558  and  _560
REMARK  239  A    between atoms: _560  and  _561
REMARK  240  A    between atoms: _563  and  _565
REMARK  241  A    between atoms: _565  and  _566
REMARK  242  A    between atoms: _565  and  _568
REMARK  243  A    between atoms: _568  and  _569
REMARK  244  A    between atoms: _569  and  _570
REMARK  245  A    between atoms: _573  and  _575
REMARK  246  A    between atoms: _575  and  _576
REMARK  247  A    between atoms: _575  and  _578
REMARK  248  A    between atoms: _578  and  _579
REMARK  249  A    between atoms: _584  and  _586
REMARK  250  A    between atoms: _586  and  _587
REMARK  251  A    between atoms: _589  and  _591
REMARK  252  A    between atoms: _591  and  _592
REMARK  253  A    between atoms: _591  and  _594
REMARK  254  A    between atoms: _594  and  _595
REMARK  255  A    between atoms: _598  and  _600
REMARK  256  A    between atoms: _600  and  _601
REMARK  257  A    between atoms: _603  and  _605
REMARK  258  A    between atoms: _605  and  _606
REMARK  259  A    between atoms: _605  and  _608
REMARK  260  A    between atoms: _608  and  _609
REMARK  261  A    between atoms: _609  and  _610
REMARK  262  A    between atoms: _610  and  _611
REMARK  263  A    between atoms: _611  and  _612
REMARK  264  A    between atoms: _616  and  _618
REMARK  265  A    between atoms: _618  and  _619
REMARK  266  A    between atoms: _618  and  _621
REMARK  267  A    between atoms: _621  and  _622
REMARK  268  A    between atoms: _625  and  _627
REMARK  269  A    between atoms: _627  and  _628
REMARK  270  A    between atoms: _627  and  _630
REMARK  271  A    between atoms: _630  and  _631
REMARK                            x       y       z     vdW  Elec       q    Type
REMARK                         _______ _______ _______ _____ _____    ______ ____
ROOT
ATOM      1  O   HOH     1      49.111 -15.824  60.614  0.00  0.00    +0.000 OA
ENDROOT
TORSDOF 0
REMARK  Name = ../refined-set-2016/2xbp/2xbp_pocket.pdb
REMARK  271 active torsions:
REMARK  status: ('A' for Active; 'I' for Inactive)
REMARK    1  A    between atoms: _1  and  _3
REMARK    2  A    between atoms: _3  and  _4
REMARK    3  A    between atoms: _3  and  _6
REMARK    4  A    between atoms: _6  and  _7
REMARK    5  A    between atoms: _7  and  _8
REMARK    6  A    between atoms: _8  and  _9
REMARK    7  A    between atoms: _9  and  _10
REMARK    8  A    between atoms: _14  and  _16
REMARK    9  A    between atoms: _16  and  _17
REMARK   10  A    between atoms: _16  and  _19
REMARK   11  A    between atoms: _19  and  _20
REMARK   12  A    between atoms: _20  and  _21
REMARK   13  A    between atoms: _21  and  _22
REMARK   14  A    between atoms: _22  and  _23
REMARK   15  A    between atoms: _27  and  _29
REMARK   16  A    between atoms: _29  and  _30
REMARK   17  A    between atoms: _29  and  _32
REMARK   18  A    between atoms: _32  and  _33
REMARK   19  A    between atoms: _36  and  _38
REMARK   20  A    between atoms: _38  and  _39
REMARK   21  A    between atoms: _38  and  _41
REMARK   22  A    between atoms: _41  and  _42
REMARK   23  A    between atoms: _45  and  _47
REMARK   24  A    between atoms: _47  and  _48
REMARK   25  A    between atoms: _47  and  _50
REMARK   26  A    between atoms: _53  and  _55
REMARK   27  A    between atoms: _55  and  _56
REMARK   28  A    between atoms: _58  and  _60
REMARK   29  A    between atoms: _60  and  _61
REMARK   30  A    between atoms: _60  and  _63
REMARK   31  A    between atoms: _64  and  _65
REMARK   32  A    between atoms: _67  and  _69
REMARK   33  A    between atoms: _69  and  _70
REMARK   34  A    between atoms: _69  and  _72
REMARK   35  A    between atoms: _72  and  _73
REMARK   36  A    between atoms: _76  and  _78
REMARK   37  A    between atoms: _78  and  _79
REMARK   38  A    between atoms: _78  and  _81
REMARK   39  A    between atoms: _84  and  _86
REMARK   40  A    between atoms: _86  and  _87
REMARK   41  A    between atoms: _86  and  _89
REMARK   42  A    between atoms: _89  and  _90
REMARK   43  A    between atoms: _93  and  _95
REMARK   44  A    between atoms: _95  and  _96
REMARK   45  A    between atoms: _95  and  _98
REMARK   46  A    between atoms: _98  and  _99
REMARK   47  A    between atoms: _99  and  _100
REMARK   48  A    between atoms: _103  and  _105
REMARK   49  A    between atoms: _105  and  _106
REMARK   50  A    between atoms: _105  and  _108
REMARK   51  A    between atoms: _108  and  _109
REMARK   52  A    between atoms: _112  and  _114
REMARK   53  A    between atoms: _114  and  _115
REMARK   54  A    between atoms: _114  and  _117
REMARK   55  A    between atoms: _120  and  _122
REMARK   56  A    between atoms: _122  and  _123
REMARK   57  A    between atoms: _122  and  _125
REMARK   58  A    between atoms: _128  and  _130
REMARK   59  A    between atoms: _130  and  _131
REMARK   60  A    between atoms: _130  and  _133
REMARK   61  A    between atoms: _134  and  _135
REMARK   62  A    between atoms: _138  and  _140
REMARK   63  A    between atoms: _140  and  _141
REMARK   64  A    between atoms: _140  and  _143
REMARK   65  A    between atoms: _143  and  _144
REMARK   66  A    between atoms: _144  and  _145
REMARK   67  A    between atoms: _150  and  _152
REMARK   68  A    between atoms: _152  and  _153
REMARK   69  A    between atoms: _152  and  _155
REMARK   70  A    between atoms: _155  and  _156
REMARK   71  A    between atoms: _159  and  _161
REMARK   72  A    between atoms: _161  and  _162
REMARK   73  A    between atoms: _161  and  _164
REMARK   74  A    between atoms: _164  and  _165
REMARK   75  A    between atoms: _168  and  _170
REMARK   76  A    between atoms: _170  and  _171
REMARK   77  A    between atoms: _170  and  _173
REMARK   78  A    between atoms: _173  and  _174
REMARK   79  A    between atoms: _174  and  _175
REMARK   80  A    between atoms: _175  and  _176
REMARK   81  A    between atoms: _185  and  _187
REMARK   82  A    between atoms: _187  and  _188
REMARK   83  A    between atoms: _187  and  _190
REMARK   84  A    between atoms: _190  and  _191
REMARK   85  A    between atoms: _194  and  _196
REMARK   86  A    between atoms: _196  and  _197
REMARK   87  A    between atoms: _196  and  _199
REMARK   88  A    between atoms: _199  and  _200
REMARK   89  A    between atoms: _200  and  _201
REMARK   90  A    between atoms: _201  and  _202
REMARK   91  A    between atoms: _211  and  _213
REMARK   92  A    between atoms: _213  and  _214
REMARK   93  A    between atoms: _213  and  _216
REMARK   94  A    between atoms: _216  and  _217
REMARK   95  A    between atoms: _220  and  _222
REMARK   96  A    between atoms: _222  and  _223
REMARK   97  A    between atoms: _225  and  _227
REMARK   98  A    between atoms: _227  and  _228
REMARK   99  A    between atoms: _227  and  _230
REMARK  100  A    between atoms: _230  and  _231
REMARK  101  A    between atoms: _231  and  _232
REMARK  102  A    between atoms: _235  and  _237
REMARK  103  A    between atoms: _237  and  _238
REMARK  104  A    between atoms: _237  and  _240
REMARK  105  A    between atoms: _240  and  _241
REMARK  106  A    between atoms: _244  and  _246
REMARK  107  A    between atoms: _246  and  _247
REMARK  108  A    between atoms: _250  and  _252
REMARK  109  A    between atoms: _252  and  _253
REMARK  110  A    between atoms: _252  and  _255
REMARK  111  A    between atoms: _255  and  _256
REMARK  112  A    between atoms: _261  and  _262
REMARK  113  A    between atoms: _261  and  _264
REMARK  114  A    between atoms: _264  and  _265
REMARK  115  A    between atoms: _267  and  _269
REMARK  116  A    between atoms: _269  and  _270
REMARK  117  A    between atoms: _273  and  _275
REMARK  118  A    between atoms: _275  and  _276
REMARK  119  A    between atoms: _275  and  _278
REMARK  120  A    between atoms: _278  and  _279
REMARK  121  A    between atoms: _282  and  _284
REMARK  122  A    between atoms: _284  and  _285
REMARK  123  A    between atoms: _284  and  _287
REMARK  124  A    between atoms: _287  and  _288
REMARK  125  A    between atoms: _291  and  _293
REMARK  126  A    between atoms: _293  and  _294
REMARK  127  A    between atoms: _293  and  _296
REMARK  128  A    between atoms: _296  and  _297
REMARK  129  A    between atoms: _297  and  _298
REMARK  130  A    between atoms: _298  and  _299
REMARK  131  A    between atoms: _308  and  _310
REMARK  132  A    between atoms: _310  and  _311
REMARK  133  A    between atoms: _310  and  _313
REMARK  134  A    between atoms: _316  and  _318
REMARK  135  A    between atoms: _318  and  _319
REMARK  136  A    between atoms: _318  and  _321
REMARK  137  A    between atoms: _321  and  _322
REMARK  138  A    between atoms: _322  and  _323
REMARK  139  A    between atoms: _323  and  _324
REMARK  140  A    between atoms: _333  and  _335
REMARK  141  A    between atoms: _335  and  _336
REMARK  142  A    between atoms: _338  and  _340
REMARK  143  A    between atoms: _340  and  _341
REMARK  144  A    between atoms: _340  and  _343
REMARK  145  A    between atoms: _343  and  _344
REMARK  146  A    between atoms: _350  and  _352
REMARK  147  A    between atoms: _352  and  _353
REMARK  148  A    between atoms: _353  and  _354
REMARK  149  A    between atoms: _353  and  _355
REMARK  150  A    between atoms: _354  and  MG_637
REMARK  151  A    between atoms: _355  and  _357
REMARK  152  A    between atoms: _357  and  _358
REMARK  153  A    between atoms: _357  and  _360
REMARK  154  A    between atoms: _360  and  _361
REMARK  155  A    between atoms: _361  and  _362
REMARK  156  A    between atoms: _362  and  _363
REMARK  157  A    between atoms: _372  and  _374
REMARK  158  A    between atoms: _374  and  _375
REMARK  159  A    between atoms: _374  and  _377
REMARK  160  A    between atoms: _377  and  _378
REMARK  161  A    between atoms: _378  and  _379
REMARK  162  A    between atoms: _384  and  _386
REMARK  163  A    between atoms: _386  and  _387
REMARK  164  A    between atoms: _386  and  _389
REMARK  165  A    between atoms: _389  and  _390
REMARK  166  A    between atoms: _390  and  _391
REMARK  167  A    between atoms: _391  and  _392
REMARK  168  A    between atoms: _392  and  _393
REMARK  169  A    between atoms: _397  and  _399
REMARK  170  A    between atoms: _399  and  _400
REMARK  171  A    between atoms: _399  and  _402
REMARK  172  A    between atoms: _402  and  _403
REMARK  173  A    between atoms: _403  and  _404
REMARK  174  A    between atoms: _409  and  _411
REMARK  175  A    between atoms: _411  and  _412
REMARK  176  A    between atoms: _411  and  _414
REMARK  177  A    between atoms: _414  and  _415
REMARK  178  A    between atoms: _418  and  _420
REMARK  179  A    between atoms: _420  and  _421
REMARK  180  A    between atoms: _420  and  _423
REMARK  181  A    between atoms: _423  and  _424
REMARK  182  A    between atoms: _424  and  _425
REMARK  183  A    between atoms: _428  and  _430
REMARK  184  A    between atoms: _430  and  _431
REMARK  185  A    between atoms: _430  and  _433
REMARK  186  A    between atoms: _434  and  _435
REMARK  187  A    between atoms: _435  and  _436
REMARK  188  A    between atoms: _445  and  _447
REMARK  189  A    between atoms: _447  and  _448
REMARK  190  A    between atoms: _447  and  _450
REMARK  191  A    between atoms: _450  and  _451
REMARK  192  A    between atoms: _454  and  _456
REMARK  193  A    between atoms: _456  and  _457
REMARK  194  A    between atoms: _456  and  _459
REMARK  195  A    between atoms: _459  and  _460
REMARK  196  A    between atoms: _460  and  _461
REMARK  197  A    between atoms: _464  and  _466
REMARK  198  A    between atoms: _466  and  _467
REMARK  199  A    between atoms: _466  and  _469
REMARK  200  A    between atoms: _469  and  _470
REMARK  201  A    between atoms: _476  and  _478
REMARK  202  A    between atoms: _478  and  _479
REMARK  203  A    between atoms: _478  and  _481
REMARK  204  A    between atoms: _481  and  _482
REMARK  205  A    between atoms: _485  and  _487
REMARK  206  A    between atoms: _487  and  _488
REMARK  207  A    between atoms: _487  and  _490
REMARK  208  A    between atoms: _490  and  _491
REMARK  209  A    between atoms: _491  and  _492
REMARK  210  A    between atoms: _497  and  _499
REMARK  211  A    between atoms: _499  and  _500
REMARK  212  A    between atoms: _499  and  _502
REMARK  213  A    between atoms: _502  and  _503
REMARK  214  A    between atoms: _503  and  _504
REMARK  215  A    between atoms: _504  and  _505
REMARK  216  A    between atoms: _505  and  _506
REMARK  217  A    between atoms: _510  and  _512
REMARK  218  A    between atoms: _512  and  _513
REMARK  219  A    between atoms: _512  and  _515
REMARK  220  A    between atoms: _515  and  _516
REMARK  221  A    between atoms: _519  and  _521
REMARK  222  A    between atoms: _521  and  _522
REMARK  223  A    between atoms: _521  and  _524
REMARK  224  A    between atoms: _524  and  _525
REMARK  225  A    between atoms: _525  and  _526
REMARK  226  A    between atoms: _526  and  _527
REMARK  227  A    between atoms: _527  and  _528
REMARK  228  A    between atoms: _532  and  _534
REMARK  229  A    between atoms: _534  and  _535
REMARK  230  A    between atoms: _534  and  _537
REMARK  231  A    between atoms: _537  and  _538
REMARK  232  A    between atoms: _538  and  _539
REMARK  233  A    between atoms: _539  and  _540
REMARK  234  A    between atoms: _549  and  _551
REMARK  235  A    between atoms: _551  and  _552
REMARK  236  A    between atoms: _551  and  _554
REMARK  237  A    between atoms: _554  and  _555
REMARK  238  A    between atoms: _558  and  _560
REMARK  239  A    between atoms: _560  and  _561
REMARK  240  A    between atoms: _563  and  _565
REMARK  241  A    between atoms: _565  and  _566
REMARK  242  A    between atoms: _565  and  _568
REMARK  243  A    between atoms: _568  and  _569
REMARK  244  A    between atoms: _569  and  _570
REMARK  245  A    between atoms: _573  and  _575
REMARK  246  A    between atoms: _575  and  _576
REMARK  247  A    between atoms: _575  and  _578
REMARK  248  A    between atoms: _578  and  _579
REMARK  249  A    between atoms: _584  and  _586
REMARK  250  A    between atoms: _586  and  _587
REMARK  251  A    between atoms: _589  and  _591
REMARK  252  A    between atoms: _591  and  _592
REMARK  253  A    between atoms: _591  and  _594
REMARK  254  A    between atoms: _594  and  _595
REMARK  255  A    between atoms: _598  and  _600
REMARK  256  A    between atoms: _600  and  _601
REMARK  257  A    between atoms: _603  and  _605
REMARK  258  A    between atoms: _605  and  _606
REMARK  259  A    between atoms: _605  and  _608
REMARK  260  A    between atoms: _608  and  _609
REMARK  261  A    between atoms: _609  and  _610
REMARK  262  A    between atoms: _610  and  _611
REMARK  263  A    between atoms: _611  and  _612
REMARK  264  A    between atoms: _616  and  _618
REMARK  265  A    between atoms: _618  and  _619
REMARK  266  A    between atoms: _618  and  _621
REMARK  267  A    between atoms: _621  and  _622
REMARK  268  A    between atoms: _625  and  _627
REMARK  269  A    between atoms: _627  and  _628
REMARK  270  A    between atoms: _627  and  _630
REMARK  271  A    between atoms: _630  and  _631
REMARK                            x       y       z     vdW  Elec       q    Type
REMARK                         _______ _______ _______ _____ _____    ______ ____
ROOT
ATOM      1  O   HOH     1      50.359 -18.676  66.767  0.00  0.00    +0.000 OA
ENDROOT
TORSDOF 0
REMARK  Name = ../refined-set-2016/2xbp/2xbp_pocket.pdb
REMARK  271 active torsions:
REMARK  status: ('A' for Active; 'I' for Inactive)
REMARK    1  A    between atoms: _1  and  _3
REMARK    2  A    between atoms: _3  and  _4
REMARK    3  A    between atoms: _3  and  _6
REMARK    4  A    between atoms: _6  and  _7
REMARK    5  A    between atoms: _7  and  _8
REMARK    6  A    between atoms: _8  and  _9
REMARK    7  A    between atoms: _9  and  _10
REMARK    8  A    between atoms: _14  and  _16
REMARK    9  A    between atoms: _16  and  _17
REMARK   10  A    between atoms: _16  and  _19
REMARK   11  A    between atoms: _19  and  _20
REMARK   12  A    between atoms: _20  and  _21
REMARK   13  A    between atoms: _21  and  _22
REMARK   14  A    between atoms: _22  and  _23
REMARK   15  A    between atoms: _27  and  _29
REMARK   16  A    between atoms: _29  and  _30
REMARK   17  A    between atoms: _29  and  _32
REMARK   18  A    between atoms: _32  and  _33
REMARK   19  A    between atoms: _36  and  _38
REMARK   20  A    between atoms: _38  and  _39
REMARK   21  A    between atoms: _38  and  _41
REMARK   22  A    between atoms: _41  and  _42
REMARK   23  A    between atoms: _45  and  _47
REMARK   24  A    between atoms: _47  and  _48
REMARK   25  A    between atoms: _47  and  _50
REMARK   26  A    between atoms: _53  and  _55
REMARK   27  A    between atoms: _55  and  _56
REMARK   28  A    between atoms: _58  and  _60
REMARK   29  A    between atoms: _60  and  _61
REMARK   30  A    between atoms: _60  and  _63
REMARK   31  A    between atoms: _64  and  _65
REMARK   32  A    between atoms: _67  and  _69
REMARK   33  A    between atoms: _69  and  _70
REMARK   34  A    between atoms: _69  and  _72
REMARK   35  A    between atoms: _72  and  _73
REMARK   36  A    between atoms: _76  and  _78
REMARK   37  A    between atoms: _78  and  _79
REMARK   38  A    between atoms: _78  and  _81
REMARK   39  A    between atoms: _84  and  _86
REMARK   40  A    between atoms: _86  and  _87
REMARK   41  A    between atoms: _86  and  _89
REMARK   42  A    between atoms: _89  and  _90
REMARK   43  A    between atoms: _93  and  _95
REMARK   44  A    between atoms: _95  and  _96
REMARK   45  A    between atoms: _95  and  _98
REMARK   46  A    between atoms: _98  and  _99
REMARK   47  A    between atoms: _99  and  _100
REMARK   48  A    between atoms: _103  and  _105
REMARK   49  A    between atoms: _105  and  _106
REMARK   50  A    between atoms: _105  and  _108
REMARK   51  A    between atoms: _108  and  _109
REMARK   52  A    between atoms: _112  and  _114
REMARK   53  A    between atoms: _114  and  _115
REMARK   54  A    between atoms: _114  and  _117
REMARK   55  A    between atoms: _120  and  _122
REMARK   56  A    between atoms: _122  and  _123
REMARK   57  A    between atoms: _122  and  _125
REMARK   58  A    between atoms: _128  and  _130
REMARK   59  A    between atoms: _130  and  _131
REMARK   60  A    between atoms: _130  and  _133
REMARK   61  A    between atoms: _134  and  _135
REMARK   62  A    between atoms: _138  and  _140
REMARK   63  A    between atoms: _140  and  _141
REMARK   64  A    between atoms: _140  and  _143
REMARK   65  A    between atoms: _143  and  _144
REMARK   66  A    between atoms: _144  and  _145
REMARK   67  A    between atoms: _150  and  _152
REMARK   68  A    between atoms: _152  and  _153
REMARK   69  A    between atoms: _152  and  _155
REMARK   70  A    between atoms: _155  and  _156
REMARK   71  A    between atoms: _159  and  _161
REMARK   72  A    between atoms: _161  and  _162
REMARK   73  A    between atoms: _161  and  _164
REMARK   74  A    between atoms: _164  and  _165
REMARK   75  A    between atoms: _168  and  _170
REMARK   76  A    between atoms: _170  and  _171
REMARK   77  A    between atoms: _170  and  _173
REMARK   78  A    between atoms: _173  and  _174
REMARK   79  A    between atoms: _174  and  _175
REMARK   80  A    between atoms: _175  and  _176
REMARK   81  A    between atoms: _185  and  _187
REMARK   82  A    between atoms: _187  and  _188
REMARK   83  A    between atoms: _187  and  _190
REMARK   84  A    between atoms: _190  and  _191
REMARK   85  A    between atoms: _194  and  _196
REMARK   86  A    between atoms: _196  and  _197
REMARK   87  A    between atoms: _196  and  _199
REMARK   88  A    between atoms: _199  and  _200
REMARK   89  A    between atoms: _200  and  _201
REMARK   90  A    between atoms: _201  and  _202
REMARK   91  A    between atoms: _211  and  _213
REMARK   92  A    between atoms: _213  and  _214
REMARK   93  A    between atoms: _213  and  _216
REMARK   94  A    between atoms: _216  and  _217
REMARK   95  A    between atoms: _220  and  _222
REMARK   96  A    between atoms: _222  and  _223
REMARK   97  A    between atoms: _225  and  _227
REMARK   98  A    between atoms: _227  and  _228
REMARK   99  A    between atoms: _227  and  _230
REMARK  100  A    between atoms: _230  and  _231
REMARK  101  A    between atoms: _231  and  _232
REMARK  102  A    between atoms: _235  and  _237
REMARK  103  A    between atoms: _237  and  _238
REMARK  104  A    between atoms: _237  and  _240
REMARK  105  A    between atoms: _240  and  _241
REMARK  106  A    between atoms: _244  and  _246
REMARK  107  A    between atoms: _246  and  _247
REMARK  108  A    between atoms: _250  and  _252
REMARK  109  A    between atoms: _252  and  _253
REMARK  110  A    between atoms: _252  and  _255
REMARK  111  A    between atoms: _255  and  _256
REMARK  112  A    between atoms: _261  and  _262
REMARK  113  A    between atoms: _261  and  _264
REMARK  114  A    between atoms: _264  and  _265
REMARK  115  A    between atoms: _267  and  _269
REMARK  116  A    between atoms: _269  and  _270
REMARK  117  A    between atoms: _273  and  _275
REMARK  118  A    between atoms: _275  and  _276
REMARK  119  A    between atoms: _275  and  _278
REMARK  120  A    between atoms: _278  and  _279
REMARK  121  A    between atoms: _282  and  _284
REMARK  122  A    between atoms: _284  and  _285
REMARK  123  A    between atoms: _284  and  _287
REMARK  124  A    between atoms: _287  and  _288
REMARK  125  A    between atoms: _291  and  _293
REMARK  126  A    between atoms: _293  and  _294
REMARK  127  A    between atoms: _293  and  _296
REMARK  128  A    between atoms: _296  and  _297
REMARK  129  A    between atoms: _297  and  _298
REMARK  130  A    between atoms: _298  and  _299
REMARK  131  A    between atoms: _308  and  _310
REMARK  132  A    between atoms: _310  and  _311
REMARK  133  A    between atoms: _310  and  _313
REMARK  134  A    between atoms: _316  and  _318
REMARK  135  A    between atoms: _318  and  _319
REMARK  136  A    between atoms: _318  and  _321
REMARK  137  A    between atoms: _321  and  _322
REMARK  138  A    between atoms: _322  and  _323
REMARK  139  A    between atoms: _323  and  _324
REMARK  140  A    between atoms: _333  and  _335
REMARK  141  A    between atoms: _335  and  _336
REMARK  142  A    between atoms: _338  and  _340
REMARK  143  A    between atoms: _340  and  _341
REMARK  144  A    between atoms: _340  and  _343
REMARK  145  A    between atoms: _343  and  _344
REMARK  146  A    between atoms: _350  and  _352
REMARK  147  A    between atoms: _352  and  _353
REMARK  148  A    between atoms: _353  and  _354
REMARK  149  A    between atoms: _353  and  _355
REMARK  150  A    between atoms: _354  and  MG_637
REMARK  151  A    between atoms: _355  and  _357
REMARK  152  A    between atoms: _357  and  _358
REMARK  153  A    between atoms: _357  and  _360
REMARK  154  A    between atoms: _360  and  _361
REMARK  155  A    between atoms: _361  and  _362
REMARK  156  A    between atoms: _362  and  _363
REMARK  157  A    between atoms: _372  and  _374
REMARK  158  A    between atoms: _374  and  _375
REMARK  159  A    between atoms: _374  and  _377
REMARK  160  A    between atoms: _377  and  _378
REMARK  161  A    between atoms: _378  and  _379
REMARK  162  A    between atoms: _384  and  _386
REMARK  163  A    between atoms: _386  and  _387
REMARK  164  A    between atoms: _386  and  _389
REMARK  165  A    between atoms: _389  and  _390
REMARK  166  A    between atoms: _390  and  _391
REMARK  167  A    between atoms: _391  and  _392
REMARK  168  A    between atoms: _392  and  _393
REMARK  169  A    between atoms: _397  and  _399
REMARK  170  A    between atoms: _399  and  _400
REMARK  171  A    between atoms: _399  and  _402
REMARK  172  A    between atoms: _402  and  _403
REMARK  173  A    between atoms: _403  and  _404
REMARK  174  A    between atoms: _409  and  _411
REMARK  175  A    between atoms: _411  and  _412
REMARK  176  A    between atoms: _411  and  _414
REMARK  177  A    between atoms: _414  and  _415
REMARK  178  A    between atoms: _418  and  _420
REMARK  179  A    between atoms: _420  and  _421
REMARK  180  A    between atoms: _420  and  _423
REMARK  181  A    between atoms: _423  and  _424
REMARK  182  A    between atoms: _424  and  _425
REMARK  183  A    between atoms: _428  and  _430
REMARK  184  A    between atoms: _430  and  _431
REMARK  185  A    between atoms: _430  and  _433
REMARK  186  A    between atoms: _434  and  _435
REMARK  187  A    between atoms: _435  and  _436
REMARK  188  A    between atoms: _445  and  _447
REMARK  189  A    between atoms: _447  and  _448
REMARK  190  A    between atoms: _447  and  _450
REMARK  191  A    between atoms: _450  and  _451
REMARK  192  A    between atoms: _454  and  _456
REMARK  193  A    between atoms: _456  and  _457
REMARK  194  A    between atoms: _456  and  _459
REMARK  195  A    between atoms: _459  and  _460
REMARK  196  A    between atoms: _460  and  _461
REMARK  197  A    between atoms: _464  and  _466
REMARK  198  A    between atoms: _466  and  _467
REMARK  199  A    between atoms: _466  and  _469
REMARK  200  A    between atoms: _469  and  _470
REMARK  201  A    between atoms: _476  and  _478
REMARK  202  A    between atoms: _478  and  _479
REMARK  203  A    between atoms: _478  and  _481
REMARK  204  A    between atoms: _481  and  _482
REMARK  205  A    between atoms: _485  and  _487
REMARK  206  A    between atoms: _487  and  _488
REMARK  207  A    between atoms: _487  and  _490
REMARK  208  A    between atoms: _490  and  _491
REMARK  209  A    between atoms: _491  and  _492
REMARK  210  A    between atoms: _497  and  _499
REMARK  211  A    between atoms: _499  and  _500
REMARK  212  A    between atoms: _499  and  _502
REMARK  213  A    between atoms: _502  and  _503
REMARK  214  A    between atoms: _503  and  _504
REMARK  215  A    between atoms: _504  and  _505
REMARK  216  A    between atoms: _505  and  _506
REMARK  217  A    between atoms: _510  and  _512
REMARK  218  A    between atoms: _512  and  _513
REMARK  219  A    between atoms: _512  and  _515
REMARK  220  A    between atoms: _515  and  _516
REMARK  221  A    between atoms: _519  and  _521
REMARK  222  A    between atoms: _521  and  _522
REMARK  223  A    between atoms: _521  and  _524
REMARK  224  A    between atoms: _524  and  _525
REMARK  225  A    between atoms: _525  and  _526
REMARK  226  A    between atoms: _526  and  _527
REMARK  227  A    between atoms: _527  and  _528
REMARK  228  A    between atoms: _532  and  _534
REMARK  229  A    between atoms: _534  and  _535
REMARK  230  A    between atoms: _534  and  _537
REMARK  231  A    between atoms: _537  and  _538
REMARK  232  A    between atoms: _538  and  _539
REMARK  233  A    between atoms: _539  and  _540
REMARK  234  A    between atoms: _549  and  _551
REMARK  235  A    between atoms: _551  and  _552
REMARK  236  A    between atoms: _551  and  _554
REMARK  237  A    between atoms: _554  and  _555
REMARK  238  A    between atoms: _558  and  _560
REMARK  239  A    between atoms: _560  and  _561
REMARK  240  A    between atoms: _563  and  _565
REMARK  241  A    between atoms: _565  and  _566
REMARK  242  A    between atoms: _565  and  _568
REMARK  243  A    between atoms: _568  and  _569
REMARK  244  A    between atoms: _569  and  _570
REMARK  245  A    between atoms: _573  and  _575
REMARK  246  A    between atoms: _575  and  _576
REMARK  247  A    between atoms: _575  and  _578
REMARK  248  A    between atoms: _578  and  _579
REMARK  249  A    between atoms: _584  and  _586
REMARK  250  A    between atoms: _586  and  _587
REMARK  251  A    between atoms: _589  and  _591
REMARK  252  A    between atoms: _591  and  _592
REMARK  253  A    between atoms: _591  and  _594
REMARK  254  A    between atoms: _594  and  _595
REMARK  255  A    between atoms: _598  and  _600
REMARK  256  A    between atoms: _600  and  _601
REMARK  257  A    between atoms: _603  and  _605
REMARK  258  A    between atoms: _605  and  _606
REMARK  259  A    between atoms: _605  and  _608
REMARK  260  A    between atoms: _608  and  _609
REMARK  261  A    between atoms: _609  and  _610
REMARK  262  A    between atoms: _610  and  _611
REMARK  263  A    between atoms: _611  and  _612
REMARK  264  A    between atoms: _616  and  _618
REMARK  265  A    between atoms: _618  and  _619
REMARK  266  A    between atoms: _618  and  _621
REMARK  267  A    between atoms: _621  and  _622
REMARK  268  A    between atoms: _625  and  _627
REMARK  269  A    between atoms: _627  and  _628
REMARK  270  A    between atoms: _627  and  _630
REMARK  271  A    between atoms: _630  and  _631
REMARK                            x       y       z     vdW  Elec       q    Type
REMARK                         _______ _______ _______ _____ _____    ______ ____
ROOT
ATOM      1  O   HOH     1      46.181 -16.210  67.628  0.00  0.00    +0.000 OA
ENDROOT
TORSDOF 0
REMARK  Name = ../refined-set-2016/2xbp/2xbp_pocket.pdb
REMARK  271 active torsions:
REMARK  status: ('A' for Active; 'I' for Inactive)
REMARK    1  A    between atoms: _1  and  _3
REMARK    2  A    between atoms: _3  and  _4
REMARK    3  A    between atoms: _3  and  _6
REMARK    4  A    between atoms: _6  and  _7
REMARK    5  A    between atoms: _7  and  _8
REMARK    6  A    between atoms: _8  and  _9
REMARK    7  A    between atoms: _9  and  _10
REMARK    8  A    between atoms: _14  and  _16
REMARK    9  A    between atoms: _16  and  _17
REMARK   10  A    between atoms: _16  and  _19
REMARK   11  A    between atoms: _19  and  _20
REMARK   12  A    between atoms: _20  and  _21
REMARK   13  A    between atoms: _21  and  _22
REMARK   14  A    between atoms: _22  and  _23
REMARK   15  A    between atoms: _27  and  _29
REMARK   16  A    between atoms: _29  and  _30
REMARK   17  A    between atoms: _29  and  _32
REMARK   18  A    between atoms: _32  and  _33
REMARK   19  A    between atoms: _36  and  _38
REMARK   20  A    between atoms: _38  and  _39
REMARK   21  A    between atoms: _38  and  _41
REMARK   22  A    between atoms: _41  and  _42
REMARK   23  A    between atoms: _45  and  _47
REMARK   24  A    between atoms: _47  and  _48
REMARK   25  A    between atoms: _47  and  _50
REMARK   26  A    between atoms: _53  and  _55
REMARK   27  A    between atoms: _55  and  _56
REMARK   28  A    between atoms: _58  and  _60
REMARK   29  A    between atoms: _60  and  _61
REMARK   30  A    between atoms: _60  and  _63
REMARK   31  A    between atoms: _64  and  _65
REMARK   32  A    between atoms: _67  and  _69
REMARK   33  A    between atoms: _69  and  _70
REMARK   34  A    between atoms: _69  and  _72
REMARK   35  A    between atoms: _72  and  _73
REMARK   36  A    between atoms: _76  and  _78
REMARK   37  A    between atoms: _78  and  _79
REMARK   38  A    between atoms: _78  and  _81
REMARK   39  A    between atoms: _84  and  _86
REMARK   40  A    between atoms: _86  and  _87
REMARK   41  A    between atoms: _86  and  _89
REMARK   42  A    between atoms: _89  and  _90
REMARK   43  A    between atoms: _93  and  _95
REMARK   44  A    between atoms: _95  and  _96
REMARK   45  A    between atoms: _95  and  _98
REMARK   46  A    between atoms: _98  and  _99
REMARK   47  A    between atoms: _99  and  _100
REMARK   48  A    between atoms: _103  and  _105
REMARK   49  A    between atoms: _105  and  _106
REMARK   50  A    between atoms: _105  and  _108
REMARK   51  A    between atoms: _108  and  _109
REMARK   52  A    between atoms: _112  and  _114
REMARK   53  A    between atoms: _114  and  _115
REMARK   54  A    between atoms: _114  and  _117
REMARK   55  A    between atoms: _120  and  _122
REMARK   56  A    between atoms: _122  and  _123
REMARK   57  A    between atoms: _122  and  _125
REMARK   58  A    between atoms: _128  and  _130
REMARK   59  A    between atoms: _130  and  _131
REMARK   60  A    between atoms: _130  and  _133
REMARK   61  A    between atoms: _134  and  _135
REMARK   62  A    between atoms: _138  and  _140
REMARK   63  A    between atoms: _140  and  _141
REMARK   64  A    between atoms: _140  and  _143
REMARK   65  A    between atoms: _143  and  _144
REMARK   66  A    between atoms: _144  and  _145
REMARK   67  A    between atoms: _150  and  _152
REMARK   68  A    between atoms: _152  and  _153
REMARK   69  A    between atoms: _152  and  _155
REMARK   70  A    between atoms: _155  and  _156
REMARK   71  A    between atoms: _159  and  _161
REMARK   72  A    between atoms: _161  and  _162
REMARK   73  A    between atoms: _161  and  _164
REMARK   74  A    between atoms: _164  and  _165
REMARK   75  A    between atoms: _168  and  _170
REMARK   76  A    between atoms: _170  and  _171
REMARK   77  A    between atoms: _170  and  _173
REMARK   78  A    between atoms: _173  and  _174
REMARK   79  A    between atoms: _174  and  _175
REMARK   80  A    between atoms: _175  and  _176
REMARK   81  A    between atoms: _185  and  _187
REMARK   82  A    between atoms: _187  and  _188
REMARK   83  A    between atoms: _187  and  _190
REMARK   84  A    between atoms: _190  and  _191
REMARK   85  A    between atoms: _194  and  _196
REMARK   86  A    between atoms: _196  and  _197
REMARK   87  A    between atoms: _196  and  _199
REMARK   88  A    between atoms: _199  and  _200
REMARK   89  A    between atoms: _200  and  _201
REMARK   90  A    between atoms: _201  and  _202
REMARK   91  A    between atoms: _211  and  _213
REMARK   92  A    between atoms: _213  and  _214
REMARK   93  A    between atoms: _213  and  _216
REMARK   94  A    between atoms: _216  and  _217
REMARK   95  A    between atoms: _220  and  _222
REMARK   96  A    between atoms: _222  and  _223
REMARK   97  A    between atoms: _225  and  _227
REMARK   98  A    between atoms: _227  and  _228
REMARK   99  A    between atoms: _227  and  _230
REMARK  100  A    between atoms: _230  and  _231
REMARK  101  A    between atoms: _231  and  _232
REMARK  102  A    between atoms: _235  and  _237
REMARK  103  A    between atoms: _237  and  _238
REMARK  104  A    between atoms: _237  and  _240
REMARK  105  A    between atoms: _240  and  _241
REMARK  106  A    between atoms: _244  and  _246
REMARK  107  A    between atoms: _246  and  _247
REMARK  108  A    between atoms: _250  and  _252
REMARK  109  A    between atoms: _252  and  _253
REMARK  110  A    between atoms: _252  and  _255
REMARK  111  A    between atoms: _255  and  _256
REMARK  112  A    between atoms: _261  and  _262
REMARK  113  A    between atoms: _261  and  _264
REMARK  114  A    between atoms: _264  and  _265
REMARK  115  A    between atoms: _267  and  _269
REMARK  116  A    between atoms: _269  and  _270
REMARK  117  A    between atoms: _273  and  _275
REMARK  118  A    between atoms: _275  and  _276
REMARK  119  A    between atoms: _275  and  _278
REMARK  120  A    between atoms: _278  and  _279
REMARK  121  A    between atoms: _282  and  _284
REMARK  122  A    between atoms: _284  and  _285
REMARK  123  A    between atoms: _284  and  _287
REMARK  124  A    between atoms: _287  and  _288
REMARK  125  A    between atoms: _291  and  _293
REMARK  126  A    between atoms: _293  and  _294
REMARK  127  A    between atoms: _293  and  _296
REMARK  128  A    between atoms: _296  and  _297
REMARK  129  A    between atoms: _297  and  _298
REMARK  130  A    between atoms: _298  and  _299
REMARK  131  A    between atoms: _308  and  _310
REMARK  132  A    between atoms: _310  and  _311
REMARK  133  A    between atoms: _310  and  _313
REMARK  134  A    between atoms: _316  and  _318
REMARK  135  A    between atoms: _318  and  _319
REMARK  136  A    between atoms: _318  and  _321
REMARK  137  A    between atoms: _321  and  _322
REMARK  138  A    between atoms: _322  and  _323
REMARK  139  A    between atoms: _323  and  _324
REMARK  140  A    between atoms: _333  and  _335
REMARK  141  A    between atoms: _335  and  _336
REMARK  142  A    between atoms: _338  and  _340
REMARK  143  A    between atoms: _340  and  _341
REMARK  144  A    between atoms: _340  and  _343
REMARK  145  A    between atoms: _343  and  _344
REMARK  146  A    between atoms: _350  and  _352
REMARK  147  A    between atoms: _352  and  _353
REMARK  148  A    between atoms: _353  and  _354
REMARK  149  A    between atoms: _353  and  _355
REMARK  150  A    between atoms: _354  and  MG_637
REMARK  151  A    between atoms: _355  and  _357
REMARK  152  A    between atoms: _357  and  _358
REMARK  153  A    between atoms: _357  and  _360
REMARK  154  A    between atoms: _360  and  _361
REMARK  155  A    between atoms: _361  and  _362
REMARK  156  A    between atoms: _362  and  _363
REMARK  157  A    between atoms: _372  and  _374
REMARK  158  A    between atoms: _374  and  _375
REMARK  159  A    between atoms: _374  and  _377
REMARK  160  A    between atoms: _377  and  _378
REMARK  161  A    between atoms: _378  and  _379
REMARK  162  A    between atoms: _384  and  _386
REMARK  163  A    between atoms: _386  and  _387
REMARK  164  A    between atoms: _386  and  _389
REMARK  165  A    between atoms: _389  and  _390
REMARK  166  A    between atoms: _390  and  _391
REMARK  167  A    between atoms: _391  and  _392
REMARK  168  A    between atoms: _392  and  _393
REMARK  169  A    between atoms: _397  and  _399
REMARK  170  A    between atoms: _399  and  _400
REMARK  171  A    between atoms: _399  and  _402
REMARK  172  A    between atoms: _402  and  _403
REMARK  173  A    between atoms: _403  and  _404
REMARK  174  A    between atoms: _409  and  _411
REMARK  175  A    between atoms: _411  and  _412
REMARK  176  A    between atoms: _411  and  _414
REMARK  177  A    between atoms: _414  and  _415
REMARK  178  A    between atoms: _418  and  _420
REMARK  179  A    between atoms: _420  and  _421
REMARK  180  A    between atoms: _420  and  _423
REMARK  181  A    between atoms: _423  and  _424
REMARK  182  A    between atoms: _424  and  _425
REMARK  183  A    between atoms: _428  and  _430
REMARK  184  A    between atoms: _430  and  _431
REMARK  185  A    between atoms: _430  and  _433
REMARK  186  A    between atoms: _434  and  _435
REMARK  187  A    between atoms: _435  and  _436
REMARK  188  A    between atoms: _445  and  _447
REMARK  189  A    between atoms: _447  and  _448
REMARK  190  A    between atoms: _447  and  _450
REMARK  191  A    between atoms: _450  and  _451
REMARK  192  A    between atoms: _454  and  _456
REMARK  193  A    between atoms: _456  and  _457
REMARK  194  A    between atoms: _456  and  _459
REMARK  195  A    between atoms: _459  and  _460
REMARK  196  A    between atoms: _460  and  _461
REMARK  197  A    between atoms: _464  and  _466
REMARK  198  A    between atoms: _466  and  _467
REMARK  199  A    between atoms: _466  and  _469
REMARK  200  A    between atoms: _469  and  _470
REMARK  201  A    between atoms: _476  and  _478
REMARK  202  A    between atoms: _478  and  _479
REMARK  203  A    between atoms: _478  and  _481
REMARK  204  A    between atoms: _481  and  _482
REMARK  205  A    between atoms: _485  and  _487
REMARK  206  A    between atoms: _487  and  _488
REMARK  207  A    between atoms: _487  and  _490
REMARK  208  A    between atoms: _490  and  _491
REMARK  209  A    between atoms: _491  and  _492
REMARK  210  A    between atoms: _497  and  _499
REMARK  211  A    between atoms: _499  and  _500
REMARK  212  A    between atoms: _499  and  _502
REMARK  213  A    between atoms: _502  and  _503
REMARK  214  A    between atoms: _503  and  _504
REMARK  215  A    between atoms: _504  and  _505
REMARK  216  A    between atoms: _505  and  _506
REMARK  217  A    between atoms: _510  and  _512
REMARK  218  A    between atoms: _512  and  _513
REMARK  219  A    between atoms: _512  and  _515
REMARK  220  A    between atoms: _515  and  _516
REMARK  221  A    between atoms: _519  and  _521
REMARK  222  A    between atoms: _521  and  _522
REMARK  223  A    between atoms: _521  and  _524
REMARK  224  A    between atoms: _524  and  _525
REMARK  225  A    between atoms: _525  and  _526
REMARK  226  A    between atoms: _526  and  _527
REMARK  227  A    between atoms: _527  and  _528
REMARK  228  A    between atoms: _532  and  _534
REMARK  229  A    between atoms: _534  and  _535
REMARK  230  A    between atoms: _534  and  _537
REMARK  231  A    between atoms: _537  and  _538
REMARK  232  A    between atoms: _538  and  _539
REMARK  233  A    between atoms: _539  and  _540
REMARK  234  A    between atoms: _549  and  _551
REMARK  235  A    between atoms: _551  and  _552
REMARK  236  A    between atoms: _551  and  _554
REMARK  237  A    between atoms: _554  and  _555
REMARK  238  A    between atoms: _558  and  _560
REMARK  239  A    between atoms: _560  and  _561
REMARK  240  A    between atoms: _563  and  _565
REMARK  241  A    between atoms: _565  and  _566
REMARK  242  A    between atoms: _565  and  _568
REMARK  243  A    between atoms: _568  and  _569
REMARK  244  A    between atoms: _569  and  _570
REMARK  245  A    between atoms: _573  and  _575
REMARK  246  A    between atoms: _575  and  _576
REMARK  247  A    between atoms: _575  and  _578
REMARK  248  A    between atoms: _578  and  _579
REMARK  249  A    between atoms: _584  and  _586
REMARK  250  A    between atoms: _586  and  _587
REMARK  251  A    between atoms: _589  and  _591
REMARK  252  A    between atoms: _591  and  _592
REMARK  253  A    between atoms: _591  and  _594
REMARK  254  A    between atoms: _594  and  _595
REMARK  255  A    between atoms: _598  and  _600
REMARK  256  A    between atoms: _600  and  _601
REMARK  257  A    between atoms: _603  and  _605
REMARK  258  A    between atoms: _605  and  _606
REMARK  259  A    between atoms: _605  and  _608
REMARK  260  A    between atoms: _608  and  _609
REMARK  261  A    between atoms: _609  and  _610
REMARK  262  A    between atoms: _610  and  _611
REMARK  263  A    between atoms: _611  and  _612
REMARK  264  A    between atoms: _616  and  _618
REMARK  265  A    between atoms: _618  and  _619
REMARK  266  A    between atoms: _618  and  _621
REMARK  267  A    between atoms: _621  and  _622
REMARK  268  A    between atoms: _625  and  _627
REMARK  269  A    between atoms: _627  and  _628
REMARK  270  A    between atoms: _627  and  _630
REMARK  271  A    between atoms: _630  and  _631
REMARK                            x       y       z     vdW  Elec       q    Type
REMARK                         _______ _______ _______ _____ _____    ______ ____
ROOT
ATOM      1  O   HOH     1      52.802 -19.153  60.940  0.00  0.00    +0.000 OA
ENDROOT
TORSDOF 0
REMARK  Name = ../refined-set-2016/2xbp/2xbp_pocket.pdb
REMARK  271 active torsions:
REMARK  status: ('A' for Active; 'I' for Inactive)
REMARK    1  A    between atoms: _1  and  _3
REMARK    2  A    between atoms: _3  and  _4
REMARK    3  A    between atoms: _3  and  _6
REMARK    4  A    between atoms: _6  and  _7
REMARK    5  A    between atoms: _7  and  _8
REMARK    6  A    between atoms: _8  and  _9
REMARK    7  A    between atoms: _9  and  _10
REMARK    8  A    between atoms: _14  and  _16
REMARK    9  A    between atoms: _16  and  _17
REMARK   10  A    between atoms: _16  and  _19
REMARK   11  A    between atoms: _19  and  _20
REMARK   12  A    between atoms: _20  and  _21
REMARK   13  A    between atoms: _21  and  _22
REMARK   14  A    between atoms: _22  and  _23
REMARK   15  A    between atoms: _27  and  _29
REMARK   16  A    between atoms: _29  and  _30
REMARK   17  A    between atoms: _29  and  _32
REMARK   18  A    between atoms: _32  and  _33
REMARK   19  A    between atoms: _36  and  _38
REMARK   20  A    between atoms: _38  and  _39
REMARK   21  A    between atoms: _38  and  _41
REMARK   22  A    between atoms: _41  and  _42
REMARK   23  A    between atoms: _45  and  _47
REMARK   24  A    between atoms: _47  and  _48
REMARK   25  A    between atoms: _47  and  _50
REMARK   26  A    between atoms: _53  and  _55
REMARK   27  A    between atoms: _55  and  _56
REMARK   28  A    between atoms: _58  and  _60
REMARK   29  A    between atoms: _60  and  _61
REMARK   30  A    between atoms: _60  and  _63
REMARK   31  A    between atoms: _64  and  _65
REMARK   32  A    between atoms: _67  and  _69
REMARK   33  A    between atoms: _69  and  _70
REMARK   34  A    between atoms: _69  and  _72
REMARK   35  A    between atoms: _72  and  _73
REMARK   36  A    between atoms: _76  and  _78
REMARK   37  A    between atoms: _78  and  _79
REMARK   38  A    between atoms: _78  and  _81
REMARK   39  A    between atoms: _84  and  _86
REMARK   40  A    between atoms: _86  and  _87
REMARK   41  A    between atoms: _86  and  _89
REMARK   42  A    between atoms: _89  and  _90
REMARK   43  A    between atoms: _93  and  _95
REMARK   44  A    between atoms: _95  and  _96
REMARK   45  A    between atoms: _95  and  _98
REMARK   46  A    between atoms: _98  and  _99
REMARK   47  A    between atoms: _99  and  _100
REMARK   48  A    between atoms: _103  and  _105
REMARK   49  A    between atoms: _105  and  _106
REMARK   50  A    between atoms: _105  and  _108
REMARK   51  A    between atoms: _108  and  _109
REMARK   52  A    between atoms: _112  and  _114
REMARK   53  A    between atoms: _114  and  _115
REMARK   54  A    between atoms: _114  and  _117
REMARK   55  A    between atoms: _120  and  _122
REMARK   56  A    between atoms: _122  and  _123
REMARK   57  A    between atoms: _122  and  _125
REMARK   58  A    between atoms: _128  and  _130
REMARK   59  A    between atoms: _130  and  _131
REMARK   60  A    between atoms: _130  and  _133
REMARK   61  A    between atoms: _134  and  _135
REMARK   62  A    between atoms: _138  and  _140
REMARK   63  A    between atoms: _140  and  _141
REMARK   64  A    between atoms: _140  and  _143
REMARK   65  A    between atoms: _143  and  _144
REMARK   66  A    between atoms: _144  and  _145
REMARK   67  A    between atoms: _150  and  _152
REMARK   68  A    between atoms: _152  and  _153
REMARK   69  A    between atoms: _152  and  _155
REMARK   70  A    between atoms: _155  and  _156
REMARK   71  A    between atoms: _159  and  _161
REMARK   72  A    between atoms: _161  and  _162
REMARK   73  A    between atoms: _161  and  _164
REMARK   74  A    between atoms: _164  and  _165
REMARK   75  A    between atoms: _168  and  _170
REMARK   76  A    between atoms: _170  and  _171
REMARK   77  A    between atoms: _170  and  _173
REMARK   78  A    between atoms: _173  and  _174
REMARK   79  A    between atoms: _174  and  _175
REMARK   80  A    between atoms: _175  and  _176
REMARK   81  A    between atoms: _185  and  _187
REMARK   82  A    between atoms: _187  and  _188
REMARK   83  A    between atoms: _187  and  _190
REMARK   84  A    between atoms: _190  and  _191
REMARK   85  A    between atoms: _194  and  _196
REMARK   86  A    between atoms: _196  and  _197
REMARK   87  A    between atoms: _196  and  _199
REMARK   88  A    between atoms: _199  and  _200
REMARK   89  A    between atoms: _200  and  _201
REMARK   90  A    between atoms: _201  and  _202
REMARK   91  A    between atoms: _211  and  _213
REMARK   92  A    between atoms: _213  and  _214
REMARK   93  A    between atoms: _213  and  _216
REMARK   94  A    between atoms: _216  and  _217
REMARK   95  A    between atoms: _220  and  _222
REMARK   96  A    between atoms: _222  and  _223
REMARK   97  A    between atoms: _225  and  _227
REMARK   98  A    between atoms: _227  and  _228
REMARK   99  A    between atoms: _227  and  _230
REMARK  100  A    between atoms: _230  and  _231
REMARK  101  A    between atoms: _231  and  _232
REMARK  102  A    between atoms: _235  and  _237
REMARK  103  A    between atoms: _237  and  _238
REMARK  104  A    between atoms: _237  and  _240
REMARK  105  A    between atoms: _240  and  _241
REMARK  106  A    between atoms: _244  and  _246
REMARK  107  A    between atoms: _246  and  _247
REMARK  108  A    between atoms: _250  and  _252
REMARK  109  A    between atoms: _252  and  _253
REMARK  110  A    between atoms: _252  and  _255
REMARK  111  A    between atoms: _255  and  _256
REMARK  112  A    between atoms: _261  and  _262
REMARK  113  A    between atoms: _261  and  _264
REMARK  114  A    between atoms: _264  and  _265
REMARK  115  A    between atoms: _267  and  _269
REMARK  116  A    between atoms: _269  and  _270
REMARK  117  A    between atoms: _273  and  _275
REMARK  118  A    between atoms: _275  and  _276
REMARK  119  A    between atoms: _275  and  _278
REMARK  120  A    between atoms: _278  and  _279
REMARK  121  A    between atoms: _282  and  _284
REMARK  122  A    between atoms: _284  and  _285
REMARK  123  A    between atoms: _284  and  _287
REMARK  124  A    between atoms: _287  and  _288
REMARK  125  A    between atoms: _291  and  _293
REMARK  126  A    between atoms: _293  and  _294
REMARK  127  A    between atoms: _293  and  _296
REMARK  128  A    between atoms: _296  and  _297
REMARK  129  A    between atoms: _297  and  _298
REMARK  130  A    between atoms: _298  and  _299
REMARK  131  A    between atoms: _308  and  _310
REMARK  132  A    between atoms: _310  and  _311
REMARK  133  A    between atoms: _310  and  _313
REMARK  134  A    between atoms: _316  and  _318
REMARK  135  A    between atoms: _318  and  _319
REMARK  136  A    between atoms: _318  and  _321
REMARK  137  A    between atoms: _321  and  _322
REMARK  138  A    between atoms: _322  and  _323
REMARK  139  A    between atoms: _323  and  _324
REMARK  140  A    between atoms: _333  and  _335
REMARK  141  A    between atoms: _335  and  _336
REMARK  142  A    between atoms: _338  and  _340
REMARK  143  A    between atoms: _340  and  _341
REMARK  144  A    between atoms: _340  and  _343
REMARK  145  A    between atoms: _343  and  _344
REMARK  146  A    between atoms: _350  and  _352
REMARK  147  A    between atoms: _352  and  _353
REMARK  148  A    between atoms: _353  and  _354
REMARK  149  A    between atoms: _353  and  _355
REMARK  150  A    between atoms: _354  and  MG_637
REMARK  151  A    between atoms: _355  and  _357
REMARK  152  A    between atoms: _357  and  _358
REMARK  153  A    between atoms: _357  and  _360
REMARK  154  A    between atoms: _360  and  _361
REMARK  155  A    between atoms: _361  and  _362
REMARK  156  A    between atoms: _362  and  _363
REMARK  157  A    between atoms: _372  and  _374
REMARK  158  A    between atoms: _374  and  _375
REMARK  159  A    between atoms: _374  and  _377
REMARK  160  A    between atoms: _377  and  _378
REMARK  161  A    between atoms: _378  and  _379
REMARK  162  A    between atoms: _384  and  _386
REMARK  163  A    between atoms: _386  and  _387
REMARK  164  A    between atoms: _386  and  _389
REMARK  165  A    between atoms: _389  and  _390
REMARK  166  A    between atoms: _390  and  _391
REMARK  167  A    between atoms: _391  and  _392
REMARK  168  A    between atoms: _392  and  _393
REMARK  169  A    between atoms: _397  and  _399
REMARK  170  A    between atoms: _399  and  _400
REMARK  171  A    between atoms: _399  and  _402
REMARK  172  A    between atoms: _402  and  _403
REMARK  173  A    between atoms: _403  and  _404
REMARK  174  A    between atoms: _409  and  _411
REMARK  175  A    between atoms: _411  and  _412
REMARK  176  A    between atoms: _411  and  _414
REMARK  177  A    between atoms: _414  and  _415
REMARK  178  A    between atoms: _418  and  _420
REMARK  179  A    between atoms: _420  and  _421
REMARK  180  A    between atoms: _420  and  _423
REMARK  181  A    between atoms: _423  and  _424
REMARK  182  A    between atoms: _424  and  _425
REMARK  183  A    between atoms: _428  and  _430
REMARK  184  A    between atoms: _430  and  _431
REMARK  185  A    between atoms: _430  and  _433
REMARK  186  A    between atoms: _434  and  _435
REMARK  187  A    between atoms: _435  and  _436
REMARK  188  A    between atoms: _445  and  _447
REMARK  189  A    between atoms: _447  and  _448
REMARK  190  A    between atoms: _447  and  _450
REMARK  191  A    between atoms: _450  and  _451
REMARK  192  A    between atoms: _454  and  _456
REMARK  193  A    between atoms: _456  and  _457
REMARK  194  A    between atoms: _456  and  _459
REMARK  195  A    between atoms: _459  and  _460
REMARK  196  A    between atoms: _460  and  _461
REMARK  197  A    between atoms: _464  and  _466
REMARK  198  A    between atoms: _466  and  _467
REMARK  199  A    between atoms: _466  and  _469
REMARK  200  A    between atoms: _469  and  _470
REMARK  201  A    between atoms: _476  and  _478
REMARK  202  A    between atoms: _478  and  _479
REMARK  203  A    between atoms: _478  and  _481
REMARK  204  A    between atoms: _481  and  _482
REMARK  205  A    between atoms: _485  and  _487
REMARK  206  A    between atoms: _487  and  _488
REMARK  207  A    between atoms: _487  and  _490
REMARK  208  A    between atoms: _490  and  _491
REMARK  209  A    between atoms: _491  and  _492
REMARK  210  A    between atoms: _497  and  _499
REMARK  211  A    between atoms: _499  and  _500
REMARK  212  A    between atoms: _499  and  _502
REMARK  213  A    between atoms: _502  and  _503
REMARK  214  A    between atoms: _503  and  _504
REMARK  215  A    between atoms: _504  and  _505
REMARK  216  A    between atoms: _505  and  _506
REMARK  217  A    between atoms: _510  and  _512
REMARK  218  A    between atoms: _512  and  _513
REMARK  219  A    between atoms: _512  and  _515
REMARK  220  A    between atoms: _515  and  _516
REMARK  221  A    between atoms: _519  and  _521
REMARK  222  A    between atoms: _521  and  _522
REMARK  223  A    between atoms: _521  and  _524
REMARK  224  A    between atoms: _524  and  _525
REMARK  225  A    between atoms: _525  and  _526
REMARK  226  A    between atoms: _526  and  _527
REMARK  227  A    between atoms: _527  and  _528
REMARK  228  A    between atoms: _532  and  _534
REMARK  229  A    between atoms: _534  and  _535
REMARK  230  A    between atoms: _534  and  _537
REMARK  231  A    between atoms: _537  and  _538
REMARK  232  A    between atoms: _538  and  _539
REMARK  233  A    between atoms: _539  and  _540
REMARK  234  A    between atoms: _549  and  _551
REMARK  235  A    between atoms: _551  and  _552
REMARK  236  A    between atoms: _551  and  _554
REMARK  237  A    between atoms: _554  and  _555
REMARK  238  A    between atoms: _558  and  _560
REMARK  239  A    between atoms: _560  and  _561
REMARK  240  A    between atoms: _563  and  _565
REMARK  241  A    between atoms: _565  and  _566
REMARK  242  A    between atoms: _565  and  _568
REMARK  243  A    between atoms: _568  and  _569
REMARK  244  A    between atoms: _569  and  _570
REMARK  245  A    between atoms: _573  and  _575
REMARK  246  A    between atoms: _575  and  _576
REMARK  247  A    between atoms: _575  and  _578
REMARK  248  A    between atoms: _578  and  _579
REMARK  249  A    between atoms: _584  and  _586
REMARK  250  A    between atoms: _586  and  _587
REMARK  251  A    between atoms: _589  and  _591
REMARK  252  A    between atoms: _591  and  _592
REMARK  253  A    between atoms: _591  and  _594
REMARK  254  A    between atoms: _594  and  _595
REMARK  255  A    between atoms: _598  and  _600
REMARK  256  A    between atoms: _600  and  _601
REMARK  257  A    between atoms: _603  and  _605
REMARK  258  A    between atoms: _605  and  _606
REMARK  259  A    between atoms: _605  and  _608
REMARK  260  A    between atoms: _608  and  _609
REMARK  261  A    between atoms: _609  and  _610
REMARK  262  A    between atoms: _610  and  _611
REMARK  263  A    between atoms: _611  and  _612
REMARK  264  A    between atoms: _616  and  _618
REMARK  265  A    between atoms: _618  and  _619
REMARK  266  A    between atoms: _618  and  _621
REMARK  267  A    between atoms: _621  and  _622
REMARK  268  A    between atoms: _625  and  _627
REMARK  269  A    between atoms: _627  and  _628
REMARK  270  A    between atoms: _627  and  _630
REMARK  271  A    between atoms: _630  and  _631
REMARK                            x       y       z     vdW  Elec       q    Type
REMARK                         _______ _______ _______ _____ _____    ______ ____
ROOT
ATOM      1  O   HOH     1      48.303 -11.160  57.748  0.00  0.00    +0.000 OA
ENDROOT
TORSDOF 0
REMARK  Name = ../refined-set-2016/2xbp/2xbp_pocket.pdb
REMARK  271 active torsions:
REMARK  status: ('A' for Active; 'I' for Inactive)
REMARK    1  A    between atoms: _1  and  _3
REMARK    2  A    between atoms: _3  and  _4
REMARK    3  A    between atoms: _3  and  _6
REMARK    4  A    between atoms: _6  and  _7
REMARK    5  A    between atoms: _7  and  _8
REMARK    6  A    between atoms: _8  and  _9
REMARK    7  A    between atoms: _9  and  _10
REMARK    8  A    between atoms: _14  and  _16
REMARK    9  A    between atoms: _16  and  _17
REMARK   10  A    between atoms: _16  and  _19
REMARK   11  A    between atoms: _19  and  _20
REMARK   12  A    between atoms: _20  and  _21
REMARK   13  A    between atoms: _21  and  _22
REMARK   14  A    between atoms: _22  and  _23
REMARK   15  A    between atoms: _27  and  _29
REMARK   16  A    between atoms: _29  and  _30
REMARK   17  A    between atoms: _29  and  _32
REMARK   18  A    between atoms: _32  and  _33
REMARK   19  A    between atoms: _36  and  _38
REMARK   20  A    between atoms: _38  and  _39
REMARK   21  A    between atoms: _38  and  _41
REMARK   22  A    between atoms: _41  and  _42
REMARK   23  A    between atoms: _45  and  _47
REMARK   24  A    between atoms: _47  and  _48
REMARK   25  A    between atoms: _47  and  _50
REMARK   26  A    between atoms: _53  and  _55
REMARK   27  A    between atoms: _55  and  _56
REMARK   28  A    between atoms: _58  and  _60
REMARK   29  A    between atoms: _60  and  _61
REMARK   30  A    between atoms: _60  and  _63
REMARK   31  A    between atoms: _64  and  _65
REMARK   32  A    between atoms: _67  and  _69
REMARK   33  A    between atoms: _69  and  _70
REMARK   34  A    between atoms: _69  and  _72
REMARK   35  A    between atoms: _72  and  _73
REMARK   36  A    between atoms: _76  and  _78
REMARK   37  A    between atoms: _78  and  _79
REMARK   38  A    between atoms: _78  and  _81
REMARK   39  A    between atoms: _84  and  _86
REMARK   40  A    between atoms: _86  and  _87
REMARK   41  A    between atoms: _86  and  _89
REMARK   42  A    between atoms: _89  and  _90
REMARK   43  A    between atoms: _93  and  _95
REMARK   44  A    between atoms: _95  and  _96
REMARK   45  A    between atoms: _95  and  _98
REMARK   46  A    between atoms: _98  and  _99
REMARK   47  A    between atoms: _99  and  _100
REMARK   48  A    between atoms: _103  and  _105
REMARK   49  A    between atoms: _105  and  _106
REMARK   50  A    between atoms: _105  and  _108
REMARK   51  A    between atoms: _108  and  _109
REMARK   52  A    between atoms: _112  and  _114
REMARK   53  A    between atoms: _114  and  _115
REMARK   54  A    between atoms: _114  and  _117
REMARK   55  A    between atoms: _120  and  _122
REMARK   56  A    between atoms: _122  and  _123
REMARK   57  A    between atoms: _122  and  _125
REMARK   58  A    between atoms: _128  and  _130
REMARK   59  A    between atoms: _130  and  _131
REMARK   60  A    between atoms: _130  and  _133
REMARK   61  A    between atoms: _134  and  _135
REMARK   62  A    between atoms: _138  and  _140
REMARK   63  A    between atoms: _140  and  _141
REMARK   64  A    between atoms: _140  and  _143
REMARK   65  A    between atoms: _143  and  _144
REMARK   66  A    between atoms: _144  and  _145
REMARK   67  A    between atoms: _150  and  _152
REMARK   68  A    between atoms: _152  and  _153
REMARK   69  A    between atoms: _152  and  _155
REMARK   70  A    between atoms: _155  and  _156
REMARK   71  A    between atoms: _159  and  _161
REMARK   72  A    between atoms: _161  and  _162
REMARK   73  A    between atoms: _161  and  _164
REMARK   74  A    between atoms: _164  and  _165
REMARK   75  A    between atoms: _168  and  _170
REMARK   76  A    between atoms: _170  and  _171
REMARK   77  A    between atoms: _170  and  _173
REMARK   78  A    between atoms: _173  and  _174
REMARK   79  A    between atoms: _174  and  _175
REMARK   80  A    between atoms: _175  and  _176
REMARK   81  A    between atoms: _185  and  _187
REMARK   82  A    between atoms: _187  and  _188
REMARK   83  A    between atoms: _187  and  _190
REMARK   84  A    between atoms: _190  and  _191
REMARK   85  A    between atoms: _194  and  _196
REMARK   86  A    between atoms: _196  and  _197
REMARK   87  A    between atoms: _196  and  _199
REMARK   88  A    between atoms: _199  and  _200
REMARK   89  A    between atoms: _200  and  _201
REMARK   90  A    between atoms: _201  and  _202
REMARK   91  A    between atoms: _211  and  _213
REMARK   92  A    between atoms: _213  and  _214
REMARK   93  A    between atoms: _213  and  _216
REMARK   94  A    between atoms: _216  and  _217
REMARK   95  A    between atoms: _220  and  _222
REMARK   96  A    between atoms: _222  and  _223
REMARK   97  A    between atoms: _225  and  _227
REMARK   98  A    between atoms: _227  and  _228
REMARK   99  A    between atoms: _227  and  _230
REMARK  100  A    between atoms: _230  and  _231
REMARK  101  A    between atoms: _231  and  _232
REMARK  102  A    between atoms: _235  and  _237
REMARK  103  A    between atoms: _237  and  _238
REMARK  104  A    between atoms: _237  and  _240
REMARK  105  A    between atoms: _240  and  _241
REMARK  106  A    between atoms: _244  and  _246
REMARK  107  A    between atoms: _246  and  _247
REMARK  108  A    between atoms: _250  and  _252
REMARK  109  A    between atoms: _252  and  _253
REMARK  110  A    between atoms: _252  and  _255
REMARK  111  A    between atoms: _255  and  _256
REMARK  112  A    between atoms: _261  and  _262
REMARK  113  A    between atoms: _261  and  _264
REMARK  114  A    between atoms: _264  and  _265
REMARK  115  A    between atoms: _267  and  _269
REMARK  116  A    between atoms: _269  and  _270
REMARK  117  A    between atoms: _273  and  _275
REMARK  118  A    between atoms: _275  and  _276
REMARK  119  A    between atoms: _275  and  _278
REMARK  120  A    between atoms: _278  and  _279
REMARK  121  A    between atoms: _282  and  _284
REMARK  122  A    between atoms: _284  and  _285
REMARK  123  A    between atoms: _284  and  _287
REMARK  124  A    between atoms: _287  and  _288
REMARK  125  A    between atoms: _291  and  _293
REMARK  126  A    between atoms: _293  and  _294
REMARK  127  A    between atoms: _293  and  _296
REMARK  128  A    between atoms: _296  and  _297
REMARK  129  A    between atoms: _297  and  _298
REMARK  130  A    between atoms: _298  and  _299
REMARK  131  A    between atoms: _308  and  _310
REMARK  132  A    between atoms: _310  and  _311
REMARK  133  A    between atoms: _310  and  _313
REMARK  134  A    between atoms: _316  and  _318
REMARK  135  A    between atoms: _318  and  _319
REMARK  136  A    between atoms: _318  and  _321
REMARK  137  A    between atoms: _321  and  _322
REMARK  138  A    between atoms: _322  and  _323
REMARK  139  A    between atoms: _323  and  _324
REMARK  140  A    between atoms: _333  and  _335
REMARK  141  A    between atoms: _335  and  _336
REMARK  142  A    between atoms: _338  and  _340
REMARK  143  A    between atoms: _340  and  _341
REMARK  144  A    between atoms: _340  and  _343
REMARK  145  A    between atoms: _343  and  _344
REMARK  146  A    between atoms: _350  and  _352
REMARK  147  A    between atoms: _352  and  _353
REMARK  148  A    between atoms: _353  and  _354
REMARK  149  A    between atoms: _353  and  _355
REMARK  150  A    between atoms: _354  and  MG_637
REMARK  151  A    between atoms: _355  and  _357
REMARK  152  A    between atoms: _357  and  _358
REMARK  153  A    between atoms: _357  and  _360
REMARK  154  A    between atoms: _360  and  _361
REMARK  155  A    between atoms: _361  and  _362
REMARK  156  A    between atoms: _362  and  _363
REMARK  157  A    between atoms: _372  and  _374
REMARK  158  A    between atoms: _374  and  _375
REMARK  159  A    between atoms: _374  and  _377
REMARK  160  A    between atoms: _377  and  _378
REMARK  161  A    between atoms: _378  and  _379
REMARK  162  A    between atoms: _384  and  _386
REMARK  163  A    between atoms: _386  and  _387
REMARK  164  A    between atoms: _386  and  _389
REMARK  165  A    between atoms: _389  and  _390
REMARK  166  A    between atoms: _390  and  _391
REMARK  167  A    between atoms: _391  and  _392
REMARK  168  A    between atoms: _392  and  _393
REMARK  169  A    between atoms: _397  and  _399
REMARK  170  A    between atoms: _399  and  _400
REMARK  171  A    between atoms: _399  and  _402
REMARK  172  A    between atoms: _402  and  _403
REMARK  173  A    between atoms: _403  and  _404
REMARK  174  A    between atoms: _409  and  _411
REMARK  175  A    between atoms: _411  and  _412
REMARK  176  A    between atoms: _411  and  _414
REMARK  177  A    between atoms: _414  and  _415
REMARK  178  A    between atoms: _418  and  _420
REMARK  179  A    between atoms: _420  and  _421
REMARK  180  A    between atoms: _420  and  _423
REMARK  181  A    between atoms: _423  and  _424
REMARK  182  A    between atoms: _424  and  _425
REMARK  183  A    between atoms: _428  and  _430
REMARK  184  A    between atoms: _430  and  _431
REMARK  185  A    between atoms: _430  and  _433
REMARK  186  A    between atoms: _434  and  _435
REMARK  187  A    between atoms: _435  and  _436
REMARK  188  A    between atoms: _445  and  _447
REMARK  189  A    between atoms: _447  and  _448
REMARK  190  A    between atoms: _447  and  _450
REMARK  191  A    between atoms: _450  and  _451
REMARK  192  A    between atoms: _454  and  _456
REMARK  193  A    between atoms: _456  and  _457
REMARK  194  A    between atoms: _456  and  _459
REMARK  195  A    between atoms: _459  and  _460
REMARK  196  A    between atoms: _460  and  _461
REMARK  197  A    between atoms: _464  and  _466
REMARK  198  A    between atoms: _466  and  _467
REMARK  199  A    between atoms: _466  and  _469
REMARK  200  A    between atoms: _469  and  _470
REMARK  201  A    between atoms: _476  and  _478
REMARK  202  A    between atoms: _478  and  _479
REMARK  203  A    between atoms: _478  and  _481
REMARK  204  A    between atoms: _481  and  _482
REMARK  205  A    between atoms: _485  and  _487
REMARK  206  A    between atoms: _487  and  _488
REMARK  207  A    between atoms: _487  and  _490
REMARK  208  A    between atoms: _490  and  _491
REMARK  209  A    between atoms: _491  and  _492
REMARK  210  A    between atoms: _497  and  _499
REMARK  211  A    between atoms: _499  and  _500
REMARK  212  A    between atoms: _499  and  _502
REMARK  213  A    between atoms: _502  and  _503
REMARK  214  A    between atoms: _503  and  _504
REMARK  215  A    between atoms: _504  and  _505
REMARK  216  A    between atoms: _505  and  _506
REMARK  217  A    between atoms: _510  and  _512
REMARK  218  A    between atoms: _512  and  _513
REMARK  219  A    between atoms: _512  and  _515
REMARK  220  A    between atoms: _515  and  _516
REMARK  221  A    between atoms: _519  and  _521
REMARK  222  A    between atoms: _521  and  _522
REMARK  223  A    between atoms: _521  and  _524
REMARK  224  A    between atoms: _524  and  _525
REMARK  225  A    between atoms: _525  and  _526
REMARK  226  A    between atoms: _526  and  _527
REMARK  227  A    between atoms: _527  and  _528
REMARK  228  A    between atoms: _532  and  _534
REMARK  229  A    between atoms: _534  and  _535
REMARK  230  A    between atoms: _534  and  _537
REMARK  231  A    between atoms: _537  and  _538
REMARK  232  A    between atoms: _538  and  _539
REMARK  233  A    between atoms: _539  and  _540
REMARK  234  A    between atoms: _549  and  _551
REMARK  235  A    between atoms: _551  and  _552
REMARK  236  A    between atoms: _551  and  _554
REMARK  237  A    between atoms: _554  and  _555
REMARK  238  A    between atoms: _558  and  _560
REMARK  239  A    between atoms: _560  and  _561
REMARK  240  A    between atoms: _563  and  _565
REMARK  241  A    between atoms: _565  and  _566
REMARK  242  A    between atoms: _565  and  _568
REMARK  243  A    between atoms: _568  and  _569
REMARK  244  A    between atoms: _569  and  _570
REMARK  245  A    between atoms: _573  and  _575
REMARK  246  A    between atoms: _575  and  _576
REMARK  247  A    between atoms: _575  and  _578
REMARK  248  A    between atoms: _578  and  _579
REMARK  249  A    between atoms: _584  and  _586
REMARK  250  A    between atoms: _586  and  _587
REMARK  251  A    between atoms: _589  and  _591
REMARK  252  A    between atoms: _591  and  _592
REMARK  253  A    between atoms: _591  and  _594
REMARK  254  A    between atoms: _594  and  _595
REMARK  255  A    between atoms: _598  and  _600
REMARK  256  A    between atoms: _600  and  _601
REMARK  257  A    between atoms: _603  and  _605
REMARK  258  A    between atoms: _605  and  _606
REMARK  259  A    between atoms: _605  and  _608
REMARK  260  A    between atoms: _608  and  _609
REMARK  261  A    between atoms: _609  and  _610
REMARK  262  A    between atoms: _610  and  _611
REMARK  263  A    between atoms: _611  and  _612
REMARK  264  A    between atoms: _616  and  _618
REMARK  265  A    between atoms: _618  and  _619
REMARK  266  A    between atoms: _618  and  _621
REMARK  267  A    between atoms: _621  and  _622
REMARK  268  A    between atoms: _625  and  _627
REMARK  269  A    between atoms: _627  and  _628
REMARK  270  A    between atoms: _627  and  _630
REMARK  271  A    between atoms: _630  and  _631
REMARK                            x       y       z     vdW  Elec       q    Type
REMARK                         _______ _______ _______ _____ _____    ______ ____
ROOT
ATOM      1  O   HOH     1      46.366 -13.167  55.716  0.00  0.00    +0.000 OA
ENDROOT
TORSDOF 0
REMARK  Name = ../refined-set-2016/2xbp/2xbp_pocket.pdb
REMARK  271 active torsions:
REMARK  status: ('A' for Active; 'I' for Inactive)
REMARK    1  A    between atoms: _1  and  _3
REMARK    2  A    between atoms: _3  and  _4
REMARK    3  A    between atoms: _3  and  _6
REMARK    4  A    between atoms: _6  and  _7
REMARK    5  A    between atoms: _7  and  _8
REMARK    6  A    between atoms: _8  and  _9
REMARK    7  A    between atoms: _9  and  _10
REMARK    8  A    between atoms: _14  and  _16
REMARK    9  A    between atoms: _16  and  _17
REMARK   10  A    between atoms: _16  and  _19
REMARK   11  A    between atoms: _19  and  _20
REMARK   12  A    between atoms: _20  and  _21
REMARK   13  A    between atoms: _21  and  _22
REMARK   14  A    between atoms: _22  and  _23
REMARK   15  A    between atoms: _27  and  _29
REMARK   16  A    between atoms: _29  and  _30
REMARK   17  A    between atoms: _29  and  _32
REMARK   18  A    between atoms: _32  and  _33
REMARK   19  A    between atoms: _36  and  _38
REMARK   20  A    between atoms: _38  and  _39
REMARK   21  A    between atoms: _38  and  _41
REMARK   22  A    between atoms: _41  and  _42
REMARK   23  A    between atoms: _45  and  _47
REMARK   24  A    between atoms: _47  and  _48
REMARK   25  A    between atoms: _47  and  _50
REMARK   26  A    between atoms: _53  and  _55
REMARK   27  A    between atoms: _55  and  _56
REMARK   28  A    between atoms: _58  and  _60
REMARK   29  A    between atoms: _60  and  _61
REMARK   30  A    between atoms: _60  and  _63
REMARK   31  A    between atoms: _64  and  _65
REMARK   32  A    between atoms: _67  and  _69
REMARK   33  A    between atoms: _69  and  _70
REMARK   34  A    between atoms: _69  and  _72
REMARK   35  A    between atoms: _72  and  _73
REMARK   36  A    between atoms: _76  and  _78
REMARK   37  A    between atoms: _78  and  _79
REMARK   38  A    between atoms: _78  and  _81
REMARK   39  A    between atoms: _84  and  _86
REMARK   40  A    between atoms: _86  and  _87
REMARK   41  A    between atoms: _86  and  _89
REMARK   42  A    between atoms: _89  and  _90
REMARK   43  A    between atoms: _93  and  _95
REMARK   44  A    between atoms: _95  and  _96
REMARK   45  A    between atoms: _95  and  _98
REMARK   46  A    between atoms: _98  and  _99
REMARK   47  A    between atoms: _99  and  _100
REMARK   48  A    between atoms: _103  and  _105
REMARK   49  A    between atoms: _105  and  _106
REMARK   50  A    between atoms: _105  and  _108
REMARK   51  A    between atoms: _108  and  _109
REMARK   52  A    between atoms: _112  and  _114
REMARK   53  A    between atoms: _114  and  _115
REMARK   54  A    between atoms: _114  and  _117
REMARK   55  A    between atoms: _120  and  _122
REMARK   56  A    between atoms: _122  and  _123
REMARK   57  A    between atoms: _122  and  _125
REMARK   58  A    between atoms: _128  and  _130
REMARK   59  A    between atoms: _130  and  _131
REMARK   60  A    between atoms: _130  and  _133
REMARK   61  A    between atoms: _134  and  _135
REMARK   62  A    between atoms: _138  and  _140
REMARK   63  A    between atoms: _140  and  _141
REMARK   64  A    between atoms: _140  and  _143
REMARK   65  A    between atoms: _143  and  _144
REMARK   66  A    between atoms: _144  and  _145
REMARK   67  A    between atoms: _150  and  _152
REMARK   68  A    between atoms: _152  and  _153
REMARK   69  A    between atoms: _152  and  _155
REMARK   70  A    between atoms: _155  and  _156
REMARK   71  A    between atoms: _159  and  _161
REMARK   72  A    between atoms: _161  and  _162
REMARK   73  A    between atoms: _161  and  _164
REMARK   74  A    between atoms: _164  and  _165
REMARK   75  A    between atoms: _168  and  _170
REMARK   76  A    between atoms: _170  and  _171
REMARK   77  A    between atoms: _170  and  _173
REMARK   78  A    between atoms: _173  and  _174
REMARK   79  A    between atoms: _174  and  _175
REMARK   80  A    between atoms: _175  and  _176
REMARK   81  A    between atoms: _185  and  _187
REMARK   82  A    between atoms: _187  and  _188
REMARK   83  A    between atoms: _187  and  _190
REMARK   84  A    between atoms: _190  and  _191
REMARK   85  A    between atoms: _194  and  _196
REMARK   86  A    between atoms: _196  and  _197
REMARK   87  A    between atoms: _196  and  _199
REMARK   88  A    between atoms: _199  and  _200
REMARK   89  A    between atoms: _200  and  _201
REMARK   90  A    between atoms: _201  and  _202
REMARK   91  A    between atoms: _211  and  _213
REMARK   92  A    between atoms: _213  and  _214
REMARK   93  A    between atoms: _213  and  _216
REMARK   94  A    between atoms: _216  and  _217
REMARK   95  A    between atoms: _220  and  _222
REMARK   96  A    between atoms: _222  and  _223
REMARK   97  A    between atoms: _225  and  _227
REMARK   98  A    between atoms: _227  and  _228
REMARK   99  A    between atoms: _227  and  _230
REMARK  100  A    between atoms: _230  and  _231
REMARK  101  A    between atoms: _231  and  _232
REMARK  102  A    between atoms: _235  and  _237
REMARK  103  A    between atoms: _237  and  _238
REMARK  104  A    between atoms: _237  and  _240
REMARK  105  A    between atoms: _240  and  _241
REMARK  106  A    between atoms: _244  and  _246
REMARK  107  A    between atoms: _246  and  _247
REMARK  108  A    between atoms: _250  and  _252
REMARK  109  A    between atoms: _252  and  _253
REMARK  110  A    between atoms: _252  and  _255
REMARK  111  A    between atoms: _255  and  _256
REMARK  112  A    between atoms: _261  and  _262
REMARK  113  A    between atoms: _261  and  _264
REMARK  114  A    between atoms: _264  and  _265
REMARK  115  A    between atoms: _267  and  _269
REMARK  116  A    between atoms: _269  and  _270
REMARK  117  A    between atoms: _273  and  _275
REMARK  118  A    between atoms: _275  and  _276
REMARK  119  A    between atoms: _275  and  _278
REMARK  120  A    between atoms: _278  and  _279
REMARK  121  A    between atoms: _282  and  _284
REMARK  122  A    between atoms: _284  and  _285
REMARK  123  A    between atoms: _284  and  _287
REMARK  124  A    between atoms: _287  and  _288
REMARK  125  A    between atoms: _291  and  _293
REMARK  126  A    between atoms: _293  and  _294
REMARK  127  A    between atoms: _293  and  _296
REMARK  128  A    between atoms: _296  and  _297
REMARK  129  A    between atoms: _297  and  _298
REMARK  130  A    between atoms: _298  and  _299
REMARK  131  A    between atoms: _308  and  _310
REMARK  132  A    between atoms: _310  and  _311
REMARK  133  A    between atoms: _310  and  _313
REMARK  134  A    between atoms: _316  and  _318
REMARK  135  A    between atoms: _318  and  _319
REMARK  136  A    between atoms: _318  and  _321
REMARK  137  A    between atoms: _321  and  _322
REMARK  138  A    between atoms: _322  and  _323
REMARK  139  A    between atoms: _323  and  _324
REMARK  140  A    between atoms: _333  and  _335
REMARK  141  A    between atoms: _335  and  _336
REMARK  142  A    between atoms: _338  and  _340
REMARK  143  A    between atoms: _340  and  _341
REMARK  144  A    between atoms: _340  and  _343
REMARK  145  A    between atoms: _343  and  _344
REMARK  146  A    between atoms: _350  and  _352
REMARK  147  A    between atoms: _352  and  _353
REMARK  148  A    between atoms: _353  and  _354
REMARK  149  A    between atoms: _353  and  _355
REMARK  150  A    between atoms: _354  and  MG_637
REMARK  151  A    between atoms: _355  and  _357
REMARK  152  A    between atoms: _357  and  _358
REMARK  153  A    between atoms: _357  and  _360
REMARK  154  A    between atoms: _360  and  _361
REMARK  155  A    between atoms: _361  and  _362
REMARK  156  A    between atoms: _362  and  _363
REMARK  157  A    between atoms: _372  and  _374
REMARK  158  A    between atoms: _374  and  _375
REMARK  159  A    between atoms: _374  and  _377
REMARK  160  A    between atoms: _377  and  _378
REMARK  161  A    between atoms: _378  and  _379
REMARK  162  A    between atoms: _384  and  _386
REMARK  163  A    between atoms: _386  and  _387
REMARK  164  A    between atoms: _386  and  _389
REMARK  165  A    between atoms: _389  and  _390
REMARK  166  A    between atoms: _390  and  _391
REMARK  167  A    between atoms: _391  and  _392
REMARK  168  A    between atoms: _392  and  _393
REMARK  169  A    between atoms: _397  and  _399
REMARK  170  A    between atoms: _399  and  _400
REMARK  171  A    between atoms: _399  and  _402
REMARK  172  A    between atoms: _402  and  _403
REMARK  173  A    between atoms: _403  and  _404
REMARK  174  A    between atoms: _409  and  _411
REMARK  175  A    between atoms: _411  and  _412
REMARK  176  A    between atoms: _411  and  _414
REMARK  177  A    between atoms: _414  and  _415
REMARK  178  A    between atoms: _418  and  _420
REMARK  179  A    between atoms: _420  and  _421
REMARK  180  A    between atoms: _420  and  _423
REMARK  181  A    between atoms: _423  and  _424
REMARK  182  A    between atoms: _424  and  _425
REMARK  183  A    between atoms: _428  and  _430
REMARK  184  A    between atoms: _430  and  _431
REMARK  185  A    between atoms: _430  and  _433
REMARK  186  A    between atoms: _434  and  _435
REMARK  187  A    between atoms: _435  and  _436
REMARK  188  A    between atoms: _445  and  _447
REMARK  189  A    between atoms: _447  and  _448
REMARK  190  A    between atoms: _447  and  _450
REMARK  191  A    between atoms: _450  and  _451
REMARK  192  A    between atoms: _454  and  _456
REMARK  193  A    between atoms: _456  and  _457
REMARK  194  A    between atoms: _456  and  _459
REMARK  195  A    between atoms: _459  and  _460
REMARK  196  A    between atoms: _460  and  _461
REMARK  197  A    between atoms: _464  and  _466
REMARK  198  A    between atoms: _466  and  _467
REMARK  199  A    between atoms: _466  and  _469
REMARK  200  A    between atoms: _469  and  _470
REMARK  201  A    between atoms: _476  and  _478
REMARK  202  A    between atoms: _478  and  _479
REMARK  203  A    between atoms: _478  and  _481
REMARK  204  A    between atoms: _481  and  _482
REMARK  205  A    between atoms: _485  and  _487
REMARK  206  A    between atoms: _487  and  _488
REMARK  207  A    between atoms: _487  and  _490
REMARK  208  A    between atoms: _490  and  _491
REMARK  209  A    between atoms: _491  and  _492
REMARK  210  A    between atoms: _497  and  _499
REMARK  211  A    between atoms: _499  and  _500
REMARK  212  A    between atoms: _499  and  _502
REMARK  213  A    between atoms: _502  and  _503
REMARK  214  A    between atoms: _503  and  _504
REMARK  215  A    between atoms: _504  and  _505
REMARK  216  A    between atoms: _505  and  _506
REMARK  217  A    between atoms: _510  and  _512
REMARK  218  A    between atoms: _512  and  _513
REMARK  219  A    between atoms: _512  and  _515
REMARK  220  A    between atoms: _515  and  _516
REMARK  221  A    between atoms: _519  and  _521
REMARK  222  A    between atoms: _521  and  _522
REMARK  223  A    between atoms: _521  and  _524
REMARK  224  A    between atoms: _524  and  _525
REMARK  225  A    between atoms: _525  and  _526
REMARK  226  A    between atoms: _526  and  _527
REMARK  227  A    between atoms: _527  and  _528
REMARK  228  A    between atoms: _532  and  _534
REMARK  229  A    between atoms: _534  and  _535
REMARK  230  A    between atoms: _534  and  _537
REMARK  231  A    between atoms: _537  and  _538
REMARK  232  A    between atoms: _538  and  _539
REMARK  233  A    between atoms: _539  and  _540
REMARK  234  A    between atoms: _549  and  _551
REMARK  235  A    between atoms: _551  and  _552
REMARK  236  A    between atoms: _551  and  _554
REMARK  237  A    between atoms: _554  and  _555
REMARK  238  A    between atoms: _558  and  _560
REMARK  239  A    between atoms: _560  and  _561
REMARK  240  A    between atoms: _563  and  _565
REMARK  241  A    between atoms: _565  and  _566
REMARK  242  A    between atoms: _565  and  _568
REMARK  243  A    between atoms: _568  and  _569
REMARK  244  A    between atoms: _569  and  _570
REMARK  245  A    between atoms: _573  and  _575
REMARK  246  A    between atoms: _575  and  _576
REMARK  247  A    between atoms: _575  and  _578
REMARK  248  A    between atoms: _578  and  _579
REMARK  249  A    between atoms: _584  and  _586
REMARK  250  A    between atoms: _586  and  _587
REMARK  251  A    between atoms: _589  and  _591
REMARK  252  A    between atoms: _591  and  _592
REMARK  253  A    between atoms: _591  and  _594
REMARK  254  A    between atoms: _594  and  _595
REMARK  255  A    between atoms: _598  and  _600
REMARK  256  A    between atoms: _600  and  _601
REMARK  257  A    between atoms: _603  and  _605
REMARK  258  A    between atoms: _605  and  _606
REMARK  259  A    between atoms: _605  and  _608
REMARK  260  A    between atoms: _608  and  _609
REMARK  261  A    between atoms: _609  and  _610
REMARK  262  A    between atoms: _610  and  _611
REMARK  263  A    between atoms: _611  and  _612
REMARK  264  A    between atoms: _616  and  _618
REMARK  265  A    between atoms: _618  and  _619
REMARK  266  A    between atoms: _618  and  _621
REMARK  267  A    between atoms: _621  and  _622
REMARK  268  A    between atoms: _625  and  _627
REMARK  269  A    between atoms: _627  and  _628
REMARK  270  A    between atoms: _627  and  _630
REMARK  271  A    between atoms: _630  and  _631
REMARK                            x       y       z     vdW  Elec       q    Type
REMARK                         _______ _______ _______ _____ _____    ______ ____
ROOT
ATOM      1  O   HOH     1      50.194 -11.539  59.793  0.00  0.00    +0.000 OA
ENDROOT
TORSDOF 0
REMARK  Name = ../refined-set-2016/2xbp/2xbp_pocket.pdb
REMARK  271 active torsions:
REMARK  status: ('A' for Active; 'I' for Inactive)
REMARK    1  A    between atoms: _1  and  _3
REMARK    2  A    between atoms: _3  and  _4
REMARK    3  A    between atoms: _3  and  _6
REMARK    4  A    between atoms: _6  and  _7
REMARK    5  A    between atoms: _7  and  _8
REMARK    6  A    between atoms: _8  and  _9
REMARK    7  A    between atoms: _9  and  _10
REMARK    8  A    between atoms: _14  and  _16
REMARK    9  A    between atoms: _16  and  _17
REMARK   10  A    between atoms: _16  and  _19
REMARK   11  A    between atoms: _19  and  _20
REMARK   12  A    between atoms: _20  and  _21
REMARK   13  A    between atoms: _21  and  _22
REMARK   14  A    between atoms: _22  and  _23
REMARK   15  A    between atoms: _27  and  _29
REMARK   16  A    between atoms: _29  and  _30
REMARK   17  A    between atoms: _29  and  _32
REMARK   18  A    between atoms: _32  and  _33
REMARK   19  A    between atoms: _36  and  _38
REMARK   20  A    between atoms: _38  and  _39
REMARK   21  A    between atoms: _38  and  _41
REMARK   22  A    between atoms: _41  and  _42
REMARK   23  A    between atoms: _45  and  _47
REMARK   24  A    between atoms: _47  and  _48
REMARK   25  A    between atoms: _47  and  _50
REMARK   26  A    between atoms: _53  and  _55
REMARK   27  A    between atoms: _55  and  _56
REMARK   28  A    between atoms: _58  and  _60
REMARK   29  A    between atoms: _60  and  _61
REMARK   30  A    between atoms: _60  and  _63
REMARK   31  A    between atoms: _64  and  _65
REMARK   32  A    between atoms: _67  and  _69
REMARK   33  A    between atoms: _69  and  _70
REMARK   34  A    between atoms: _69  and  _72
REMARK   35  A    between atoms: _72  and  _73
REMARK   36  A    between atoms: _76  and  _78
REMARK   37  A    between atoms: _78  and  _79
REMARK   38  A    between atoms: _78  and  _81
REMARK   39  A    between atoms: _84  and  _86
REMARK   40  A    between atoms: _86  and  _87
REMARK   41  A    between atoms: _86  and  _89
REMARK   42  A    between atoms: _89  and  _90
REMARK   43  A    between atoms: _93  and  _95
REMARK   44  A    between atoms: _95  and  _96
REMARK   45  A    between atoms: _95  and  _98
REMARK   46  A    between atoms: _98  and  _99
REMARK   47  A    between atoms: _99  and  _100
REMARK   48  A    between atoms: _103  and  _105
REMARK   49  A    between atoms: _105  and  _106
REMARK   50  A    between atoms: _105  and  _108
REMARK   51  A    between atoms: _108  and  _109
REMARK   52  A    between atoms: _112  and  _114
REMARK   53  A    between atoms: _114  and  _115
REMARK   54  A    between atoms: _114  and  _117
REMARK   55  A    between atoms: _120  and  _122
REMARK   56  A    between atoms: _122  and  _123
REMARK   57  A    between atoms: _122  and  _125
REMARK   58  A    between atoms: _128  and  _130
REMARK   59  A    between atoms: _130  and  _131
REMARK   60  A    between atoms: _130  and  _133
REMARK   61  A    between atoms: _134  and  _135
REMARK   62  A    between atoms: _138  and  _140
REMARK   63  A    between atoms: _140  and  _141
REMARK   64  A    between atoms: _140  and  _143
REMARK   65  A    between atoms: _143  and  _144
REMARK   66  A    between atoms: _144  and  _145
REMARK   67  A    between atoms: _150  and  _152
REMARK   68  A    between atoms: _152  and  _153
REMARK   69  A    between atoms: _152  and  _155
REMARK   70  A    between atoms: _155  and  _156
REMARK   71  A    between atoms: _159  and  _161
REMARK   72  A    between atoms: _161  and  _162
REMARK   73  A    between atoms: _161  and  _164
REMARK   74  A    between atoms: _164  and  _165
REMARK   75  A    between atoms: _168  and  _170
REMARK   76  A    between atoms: _170  and  _171
REMARK   77  A    between atoms: _170  and  _173
REMARK   78  A    between atoms: _173  and  _174
REMARK   79  A    between atoms: _174  and  _175
REMARK   80  A    between atoms: _175  and  _176
REMARK   81  A    between atoms: _185  and  _187
REMARK   82  A    between atoms: _187  and  _188
REMARK   83  A    between atoms: _187  and  _190
REMARK   84  A    between atoms: _190  and  _191
REMARK   85  A    between atoms: _194  and  _196
REMARK   86  A    between atoms: _196  and  _197
REMARK   87  A    between atoms: _196  and  _199
REMARK   88  A    between atoms: _199  and  _200
REMARK   89  A    between atoms: _200  and  _201
REMARK   90  A    between atoms: _201  and  _202
REMARK   91  A    between atoms: _211  and  _213
REMARK   92  A    between atoms: _213  and  _214
REMARK   93  A    between atoms: _213  and  _216
REMARK   94  A    between atoms: _216  and  _217
REMARK   95  A    between atoms: _220  and  _222
REMARK   96  A    between atoms: _222  and  _223
REMARK   97  A    between atoms: _225  and  _227
REMARK   98  A    between atoms: _227  and  _228
REMARK   99  A    between atoms: _227  and  _230
REMARK  100  A    between atoms: _230  and  _231
REMARK  101  A    between atoms: _231  and  _232
REMARK  102  A    between atoms: _235  and  _237
REMARK  103  A    between atoms: _237  and  _238
REMARK  104  A    between atoms: _237  and  _240
REMARK  105  A    between atoms: _240  and  _241
REMARK  106  A    between atoms: _244  and  _246
REMARK  107  A    between atoms: _246  and  _247
REMARK  108  A    between atoms: _250  and  _252
REMARK  109  A    between atoms: _252  and  _253
REMARK  110  A    between atoms: _252  and  _255
REMARK  111  A    between atoms: _255  and  _256
REMARK  112  A    between atoms: _261  and  _262
REMARK  113  A    between atoms: _261  and  _264
REMARK  114  A    between atoms: _264  and  _265
REMARK  115  A    between atoms: _267  and  _269
REMARK  116  A    between atoms: _269  and  _270
REMARK  117  A    between atoms: _273  and  _275
REMARK  118  A    between atoms: _275  and  _276
REMARK  119  A    between atoms: _275  and  _278
REMARK  120  A    between atoms: _278  and  _279
REMARK  121  A    between atoms: _282  and  _284
REMARK  122  A    between atoms: _284  and  _285
REMARK  123  A    between atoms: _284  and  _287
REMARK  124  A    between atoms: _287  and  _288
REMARK  125  A    between atoms: _291  and  _293
REMARK  126  A    between atoms: _293  and  _294
REMARK  127  A    between atoms: _293  and  _296
REMARK  128  A    between atoms: _296  and  _297
REMARK  129  A    between atoms: _297  and  _298
REMARK  130  A    between atoms: _298  and  _299
REMARK  131  A    between atoms: _308  and  _310
REMARK  132  A    between atoms: _310  and  _311
REMARK  133  A    between atoms: _310  and  _313
REMARK  134  A    between atoms: _316  and  _318
REMARK  135  A    between atoms: _318  and  _319
REMARK  136  A    between atoms: _318  and  _321
REMARK  137  A    between atoms: _321  and  _322
REMARK  138  A    between atoms: _322  and  _323
REMARK  139  A    between atoms: _323  and  _324
REMARK  140  A    between atoms: _333  and  _335
REMARK  141  A    between atoms: _335  and  _336
REMARK  142  A    between atoms: _338  and  _340
REMARK  143  A    between atoms: _340  and  _341
REMARK  144  A    between atoms: _340  and  _343
REMARK  145  A    between atoms: _343  and  _344
REMARK  146  A    between atoms: _350  and  _352
REMARK  147  A    between atoms: _352  and  _353
REMARK  148  A    between atoms: _353  and  _354
REMARK  149  A    between atoms: _353  and  _355
REMARK  150  A    between atoms: _354  and  MG_637
REMARK  151  A    between atoms: _355  and  _357
REMARK  152  A    between atoms: _357  and  _358
REMARK  153  A    between atoms: _357  and  _360
REMARK  154  A    between atoms: _360  and  _361
REMARK  155  A    between atoms: _361  and  _362
REMARK  156  A    between atoms: _362  and  _363
REMARK  157  A    between atoms: _372  and  _374
REMARK  158  A    between atoms: _374  and  _375
REMARK  159  A    between atoms: _374  and  _377
REMARK  160  A    between atoms: _377  and  _378
REMARK  161  A    between atoms: _378  and  _379
REMARK  162  A    between atoms: _384  and  _386
REMARK  163  A    between atoms: _386  and  _387
REMARK  164  A    between atoms: _386  and  _389
REMARK  165  A    between atoms: _389  and  _390
REMARK  166  A    between atoms: _390  and  _391
REMARK  167  A    between atoms: _391  and  _392
REMARK  168  A    between atoms: _392  and  _393
REMARK  169  A    between atoms: _397  and  _399
REMARK  170  A    between atoms: _399  and  _400
REMARK  171  A    between atoms: _399  and  _402
REMARK  172  A    between atoms: _402  and  _403
REMARK  173  A    between atoms: _403  and  _404
REMARK  174  A    between atoms: _409  and  _411
REMARK  175  A    between atoms: _411  and  _412
REMARK  176  A    between atoms: _411  and  _414
REMARK  177  A    between atoms: _414  and  _415
REMARK  178  A    between atoms: _418  and  _420
REMARK  179  A    between atoms: _420  and  _421
REMARK  180  A    between atoms: _420  and  _423
REMARK  181  A    between atoms: _423  and  _424
REMARK  182  A    between atoms: _424  and  _425
REMARK  183  A    between atoms: _428  and  _430
REMARK  184  A    between atoms: _430  and  _431
REMARK  185  A    between atoms: _430  and  _433
REMARK  186  A    between atoms: _434  and  _435
REMARK  187  A    between atoms: _435  and  _436
REMARK  188  A    between atoms: _445  and  _447
REMARK  189  A    between atoms: _447  and  _448
REMARK  190  A    between atoms: _447  and  _450
REMARK  191  A    between atoms: _450  and  _451
REMARK  192  A    between atoms: _454  and  _456
REMARK  193  A    between atoms: _456  and  _457
REMARK  194  A    between atoms: _456  and  _459
REMARK  195  A    between atoms: _459  and  _460
REMARK  196  A    between atoms: _460  and  _461
REMARK  197  A    between atoms: _464  and  _466
REMARK  198  A    between atoms: _466  and  _467
REMARK  199  A    between atoms: _466  and  _469
REMARK  200  A    between atoms: _469  and  _470
REMARK  201  A    between atoms: _476  and  _478
REMARK  202  A    between atoms: _478  and  _479
REMARK  203  A    between atoms: _478  and  _481
REMARK  204  A    between atoms: _481  and  _482
REMARK  205  A    between atoms: _485  and  _487
REMARK  206  A    between atoms: _487  and  _488
REMARK  207  A    between atoms: _487  and  _490
REMARK  208  A    between atoms: _490  and  _491
REMARK  209  A    between atoms: _491  and  _492
REMARK  210  A    between atoms: _497  and  _499
REMARK  211  A    between atoms: _499  and  _500
REMARK  212  A    between atoms: _499  and  _502
REMARK  213  A    between atoms: _502  and  _503
REMARK  214  A    between atoms: _503  and  _504
REMARK  215  A    between atoms: _504  and  _505
REMARK  216  A    between atoms: _505  and  _506
REMARK  217  A    between atoms: _510  and  _512
REMARK  218  A    between atoms: _512  and  _513
REMARK  219  A    between atoms: _512  and  _515
REMARK  220  A    between atoms: _515  and  _516
REMARK  221  A    between atoms: _519  and  _521
REMARK  222  A    between atoms: _521  and  _522
REMARK  223  A    between atoms: _521  and  _524
REMARK  224  A    between atoms: _524  and  _525
REMARK  225  A    between atoms: _525  and  _526
REMARK  226  A    between atoms: _526  and  _527
REMARK  227  A    between atoms: _527  and  _528
REMARK  228  A    between atoms: _532  and  _534
REMARK  229  A    between atoms: _534  and  _535
REMARK  230  A    between atoms: _534  and  _537
REMARK  231  A    between atoms: _537  and  _538
REMARK  232  A    between atoms: _538  and  _539
REMARK  233  A    between atoms: _539  and  _540
REMARK  234  A    between atoms: _549  and  _551
REMARK  235  A    between atoms: _551  and  _552
REMARK  236  A    between atoms: _551  and  _554
REMARK  237  A    between atoms: _554  and  _555
REMARK  238  A    between atoms: _558  and  _560
REMARK  239  A    between atoms: _560  and  _561
REMARK  240  A    between atoms: _563  and  _565
REMARK  241  A    between atoms: _565  and  _566
REMARK  242  A    between atoms: _565  and  _568
REMARK  243  A    between atoms: _568  and  _569
REMARK  244  A    between atoms: _569  and  _570
REMARK  245  A    between atoms: _573  and  _575
REMARK  246  A    between atoms: _575  and  _576
REMARK  247  A    between atoms: _575  and  _578
REMARK  248  A    between atoms: _578  and  _579
REMARK  249  A    between atoms: _584  and  _586
REMARK  250  A    between atoms: _586  and  _587
REMARK  251  A    between atoms: _589  and  _591
REMARK  252  A    between atoms: _591  and  _592
REMARK  253  A    between atoms: _591  and  _594
REMARK  254  A    between atoms: _594  and  _595
REMARK  255  A    between atoms: _598  and  _600
REMARK  256  A    between atoms: _600  and  _601
REMARK  257  A    between atoms: _603  and  _605
REMARK  258  A    between atoms: _605  and  _606
REMARK  259  A    between atoms: _605  and  _608
REMARK  260  A    between atoms: _608  and  _609
REMARK  261  A    between atoms: _609  and  _610
REMARK  262  A    between atoms: _610  and  _611
REMARK  263  A    between atoms: _611  and  _612
REMARK  264  A    between atoms: _616  and  _618
REMARK  265  A    between atoms: _618  and  _619
REMARK  266  A    between atoms: _618  and  _621
REMARK  267  A    between atoms: _621  and  _622
REMARK  268  A    between atoms: _625  and  _627
REMARK  269  A    between atoms: _627  and  _628
REMARK  270  A    between atoms: _627  and  _630
REMARK  271  A    between atoms: _630  and  _631
REMARK                            x       y       z     vdW  Elec       q    Type
REMARK                         _______ _______ _______ _____ _____    ______ ____
ROOT
ATOM      1  O   HOH     1      49.369  -8.658  57.440  0.00  0.00    +0.000 OA
ENDROOT
TORSDOF 0
REMARK  Name = ../refined-set-2016/2xbp/2xbp_pocket.pdb
REMARK  271 active torsions:
REMARK  status: ('A' for Active; 'I' for Inactive)
REMARK    1  A    between atoms: _1  and  _3
REMARK    2  A    between atoms: _3  and  _4
REMARK    3  A    between atoms: _3  and  _6
REMARK    4  A    between atoms: _6  and  _7
REMARK    5  A    between atoms: _7  and  _8
REMARK    6  A    between atoms: _8  and  _9
REMARK    7  A    between atoms: _9  and  _10
REMARK    8  A    between atoms: _14  and  _16
REMARK    9  A    between atoms: _16  and  _17
REMARK   10  A    between atoms: _16  and  _19
REMARK   11  A    between atoms: _19  and  _20
REMARK   12  A    between atoms: _20  and  _21
REMARK   13  A    between atoms: _21  and  _22
REMARK   14  A    between atoms: _22  and  _23
REMARK   15  A    between atoms: _27  and  _29
REMARK   16  A    between atoms: _29  and  _30
REMARK   17  A    between atoms: _29  and  _32
REMARK   18  A    between atoms: _32  and  _33
REMARK   19  A    between atoms: _36  and  _38
REMARK   20  A    between atoms: _38  and  _39
REMARK   21  A    between atoms: _38  and  _41
REMARK   22  A    between atoms: _41  and  _42
REMARK   23  A    between atoms: _45  and  _47
REMARK   24  A    between atoms: _47  and  _48
REMARK   25  A    between atoms: _47  and  _50
REMARK   26  A    between atoms: _53  and  _55
REMARK   27  A    between atoms: _55  and  _56
REMARK   28  A    between atoms: _58  and  _60
REMARK   29  A    between atoms: _60  and  _61
REMARK   30  A    between atoms: _60  and  _63
REMARK   31  A    between atoms: _64  and  _65
REMARK   32  A    between atoms: _67  and  _69
REMARK   33  A    between atoms: _69  and  _70
REMARK   34  A    between atoms: _69  and  _72
REMARK   35  A    between atoms: _72  and  _73
REMARK   36  A    between atoms: _76  and  _78
REMARK   37  A    between atoms: _78  and  _79
REMARK   38  A    between atoms: _78  and  _81
REMARK   39  A    between atoms: _84  and  _86
REMARK   40  A    between atoms: _86  and  _87
REMARK   41  A    between atoms: _86  and  _89
REMARK   42  A    between atoms: _89  and  _90
REMARK   43  A    between atoms: _93  and  _95
REMARK   44  A    between atoms: _95  and  _96
REMARK   45  A    between atoms: _95  and  _98
REMARK   46  A    between atoms: _98  and  _99
REMARK   47  A    between atoms: _99  and  _100
REMARK   48  A    between atoms: _103  and  _105
REMARK   49  A    between atoms: _105  and  _106
REMARK   50  A    between atoms: _105  and  _108
REMARK   51  A    between atoms: _108  and  _109
REMARK   52  A    between atoms: _112  and  _114
REMARK   53  A    between atoms: _114  and  _115
REMARK   54  A    between atoms: _114  and  _117
REMARK   55  A    between atoms: _120  and  _122
REMARK   56  A    between atoms: _122  and  _123
REMARK   57  A    between atoms: _122  and  _125
REMARK   58  A    between atoms: _128  and  _130
REMARK   59  A    between atoms: _130  and  _131
REMARK   60  A    between atoms: _130  and  _133
REMARK   61  A    between atoms: _134  and  _135
REMARK   62  A    between atoms: _138  and  _140
REMARK   63  A    between atoms: _140  and  _141
REMARK   64  A    between atoms: _140  and  _143
REMARK   65  A    between atoms: _143  and  _144
REMARK   66  A    between atoms: _144  and  _145
REMARK   67  A    between atoms: _150  and  _152
REMARK   68  A    between atoms: _152  and  _153
REMARK   69  A    between atoms: _152  and  _155
REMARK   70  A    between atoms: _155  and  _156
REMARK   71  A    between atoms: _159  and  _161
REMARK   72  A    between atoms: _161  and  _162
REMARK   73  A    between atoms: _161  and  _164
REMARK   74  A    between atoms: _164  and  _165
REMARK   75  A    between atoms: _168  and  _170
REMARK   76  A    between atoms: _170  and  _171
REMARK   77  A    between atoms: _170  and  _173
REMARK   78  A    between atoms: _173  and  _174
REMARK   79  A    between atoms: _174  and  _175
REMARK   80  A    between atoms: _175  and  _176
REMARK   81  A    between atoms: _185  and  _187
REMARK   82  A    between atoms: _187  and  _188
REMARK   83  A    between atoms: _187  and  _190
REMARK   84  A    between atoms: _190  and  _191
REMARK   85  A    between atoms: _194  and  _196
REMARK   86  A    between atoms: _196  and  _197
REMARK   87  A    between atoms: _196  and  _199
REMARK   88  A    between atoms: _199  and  _200
REMARK   89  A    between atoms: _200  and  _201
REMARK   90  A    between atoms: _201  and  _202
REMARK   91  A    between atoms: _211  and  _213
REMARK   92  A    between atoms: _213  and  _214
REMARK   93  A    between atoms: _213  and  _216
REMARK   94  A    between atoms: _216  and  _217
REMARK   95  A    between atoms: _220  and  _222
REMARK   96  A    between atoms: _222  and  _223
REMARK   97  A    between atoms: _225  and  _227
REMARK   98  A    between atoms: _227  and  _228
REMARK   99  A    between atoms: _227  and  _230
REMARK  100  A    between atoms: _230  and  _231
REMARK  101  A    between atoms: _231  and  _232
REMARK  102  A    between atoms: _235  and  _237
REMARK  103  A    between atoms: _237  and  _238
REMARK  104  A    between atoms: _237  and  _240
REMARK  105  A    between atoms: _240  and  _241
REMARK  106  A    between atoms: _244  and  _246
REMARK  107  A    between atoms: _246  and  _247
REMARK  108  A    between atoms: _250  and  _252
REMARK  109  A    between atoms: _252  and  _253
REMARK  110  A    between atoms: _252  and  _255
REMARK  111  A    between atoms: _255  and  _256
REMARK  112  A    between atoms: _261  and  _262
REMARK  113  A    between atoms: _261  and  _264
REMARK  114  A    between atoms: _264  and  _265
REMARK  115  A    between atoms: _267  and  _269
REMARK  116  A    between atoms: _269  and  _270
REMARK  117  A    between atoms: _273  and  _275
REMARK  118  A    between atoms: _275  and  _276
REMARK  119  A    between atoms: _275  and  _278
REMARK  120  A    between atoms: _278  and  _279
REMARK  121  A    between atoms: _282  and  _284
REMARK  122  A    between atoms: _284  and  _285
REMARK  123  A    between atoms: _284  and  _287
REMARK  124  A    between atoms: _287  and  _288
REMARK  125  A    between atoms: _291  and  _293
REMARK  126  A    between atoms: _293  and  _294
REMARK  127  A    between atoms: _293  and  _296
REMARK  128  A    between atoms: _296  and  _297
REMARK  129  A    between atoms: _297  and  _298
REMARK  130  A    between atoms: _298  and  _299
REMARK  131  A    between atoms: _308  and  _310
REMARK  132  A    between atoms: _310  and  _311
REMARK  133  A    between atoms: _310  and  _313
REMARK  134  A    between atoms: _316  and  _318
REMARK  135  A    between atoms: _318  and  _319
REMARK  136  A    between atoms: _318  and  _321
REMARK  137  A    between atoms: _321  and  _322
REMARK  138  A    between atoms: _322  and  _323
REMARK  139  A    between atoms: _323  and  _324
REMARK  140  A    between atoms: _333  and  _335
REMARK  141  A    between atoms: _335  and  _336
REMARK  142  A    between atoms: _338  and  _340
REMARK  143  A    between atoms: _340  and  _341
REMARK  144  A    between atoms: _340  and  _343
REMARK  145  A    between atoms: _343  and  _344
REMARK  146  A    between atoms: _350  and  _352
REMARK  147  A    between atoms: _352  and  _353
REMARK  148  A    between atoms: _353  and  _354
REMARK  149  A    between atoms: _353  and  _355
REMARK  150  A    between atoms: _354  and  MG_637
REMARK  151  A    between atoms: _355  and  _357
REMARK  152  A    between atoms: _357  and  _358
REMARK  153  A    between atoms: _357  and  _360
REMARK  154  A    between atoms: _360  and  _361
REMARK  155  A    between atoms: _361  and  _362
REMARK  156  A    between atoms: _362  and  _363
REMARK  157  A    between atoms: _372  and  _374
REMARK  158  A    between atoms: _374  and  _375
REMARK  159  A    between atoms: _374  and  _377
REMARK  160  A    between atoms: _377  and  _378
REMARK  161  A    between atoms: _378  and  _379
REMARK  162  A    between atoms: _384  and  _386
REMARK  163  A    between atoms: _386  and  _387
REMARK  164  A    between atoms: _386  and  _389
REMARK  165  A    between atoms: _389  and  _390
REMARK  166  A    between atoms: _390  and  _391
REMARK  167  A    between atoms: _391  and  _392
REMARK  168  A    between atoms: _392  and  _393
REMARK  169  A    between atoms: _397  and  _399
REMARK  170  A    between atoms: _399  and  _400
REMARK  171  A    between atoms: _399  and  _402
REMARK  172  A    between atoms: _402  and  _403
REMARK  173  A    between atoms: _403  and  _404
REMARK  174  A    between atoms: _409  and  _411
REMARK  175  A    between atoms: _411  and  _412
REMARK  176  A    between atoms: _411  and  _414
REMARK  177  A    between atoms: _414  and  _415
REMARK  178  A    between atoms: _418  and  _420
REMARK  179  A    between atoms: _420  and  _421
REMARK  180  A    between atoms: _420  and  _423
REMARK  181  A    between atoms: _423  and  _424
REMARK  182  A    between atoms: _424  and  _425
REMARK  183  A    between atoms: _428  and  _430
REMARK  184  A    between atoms: _430  and  _431
REMARK  185  A    between atoms: _430  and  _433
REMARK  186  A    between atoms: _434  and  _435
REMARK  187  A    between atoms: _435  and  _436
REMARK  188  A    between atoms: _445  and  _447
REMARK  189  A    between atoms: _447  and  _448
REMARK  190  A    between atoms: _447  and  _450
REMARK  191  A    between atoms: _450  and  _451
REMARK  192  A    between atoms: _454  and  _456
REMARK  193  A    between atoms: _456  and  _457
REMARK  194  A    between atoms: _456  and  _459
REMARK  195  A    between atoms: _459  and  _460
REMARK  196  A    between atoms: _460  and  _461
REMARK  197  A    between atoms: _464  and  _466
REMARK  198  A    between atoms: _466  and  _467
REMARK  199  A    between atoms: _466  and  _469
REMARK  200  A    between atoms: _469  and  _470
REMARK  201  A    between atoms: _476  and  _478
REMARK  202  A    between atoms: _478  and  _479
REMARK  203  A    between atoms: _478  and  _481
REMARK  204  A    between atoms: _481  and  _482
REMARK  205  A    between atoms: _485  and  _487
REMARK  206  A    between atoms: _487  and  _488
REMARK  207  A    between atoms: _487  and  _490
REMARK  208  A    between atoms: _490  and  _491
REMARK  209  A    between atoms: _491  and  _492
REMARK  210  A    between atoms: _497  and  _499
REMARK  211  A    between atoms: _499  and  _500
REMARK  212  A    between atoms: _499  and  _502
REMARK  213  A    between atoms: _502  and  _503
REMARK  214  A    between atoms: _503  and  _504
REMARK  215  A    between atoms: _504  and  _505
REMARK  216  A    between atoms: _505  and  _506
REMARK  217  A    between atoms: _510  and  _512
REMARK  218  A    between atoms: _512  and  _513
REMARK  219  A    between atoms: _512  and  _515
REMARK  220  A    between atoms: _515  and  _516
REMARK  221  A    between atoms: _519  and  _521
REMARK  222  A    between atoms: _521  and  _522
REMARK  223  A    between atoms: _521  and  _524
REMARK  224  A    between atoms: _524  and  _525
REMARK  225  A    between atoms: _525  and  _526
REMARK  226  A    between atoms: _526  and  _527
REMARK  227  A    between atoms: _527  and  _528
REMARK  228  A    between atoms: _532  and  _534
REMARK  229  A    between atoms: _534  and  _535
REMARK  230  A    between atoms: _534  and  _537
REMARK  231  A    between atoms: _537  and  _538
REMARK  232  A    between atoms: _538  and  _539
REMARK  233  A    between atoms: _539  and  _540
REMARK  234  A    between atoms: _549  and  _551
REMARK  235  A    between atoms: _551  and  _552
REMARK  236  A    between atoms: _551  and  _554
REMARK  237  A    between atoms: _554  and  _555
REMARK  238  A    between atoms: _558  and  _560
REMARK  239  A    between atoms: _560  and  _561
REMARK  240  A    between atoms: _563  and  _565
REMARK  241  A    between atoms: _565  and  _566
REMARK  242  A    between atoms: _565  and  _568
REMARK  243  A    between atoms: _568  and  _569
REMARK  244  A    between atoms: _569  and  _570
REMARK  245  A    between atoms: _573  and  _575
REMARK  246  A    between atoms: _575  and  _576
REMARK  247  A    between atoms: _575  and  _578
REMARK  248  A    between atoms: _578  and  _579
REMARK  249  A    between atoms: _584  and  _586
REMARK  250  A    between atoms: _586  and  _587
REMARK  251  A    between atoms: _589  and  _591
REMARK  252  A    between atoms: _591  and  _592
REMARK  253  A    between atoms: _591  and  _594
REMARK  254  A    between atoms: _594  and  _595
REMARK  255  A    between atoms: _598  and  _600
REMARK  256  A    between atoms: _600  and  _601
REMARK  257  A    between atoms: _603  and  _605
REMARK  258  A    between atoms: _605  and  _606
REMARK  259  A    between atoms: _605  and  _608
REMARK  260  A    between atoms: _608  and  _609
REMARK  261  A    between atoms: _609  and  _610
REMARK  262  A    between atoms: _610  and  _611
REMARK  263  A    between atoms: _611  and  _612
REMARK  264  A    between atoms: _616  and  _618
REMARK  265  A    between atoms: _618  and  _619
REMARK  266  A    between atoms: _618  and  _621
REMARK  267  A    between atoms: _621  and  _622
REMARK  268  A    between atoms: _625  and  _627
REMARK  269  A    between atoms: _627  and  _628
REMARK  270  A    between atoms: _627  and  _630
REMARK  271  A    between atoms: _630  and  _631
REMARK                            x       y       z     vdW  Elec       q    Type
REMARK                         _______ _______ _______ _____ _____    ______ ____
ROOT
ATOM      1  O   HOH     1      49.291 -12.717  49.994  0.00  0.00    +0.000 OA
ENDROOT
TORSDOF 0
REMARK  Name = ../refined-set-2016/2xbp/2xbp_pocket.pdb
REMARK  271 active torsions:
REMARK  status: ('A' for Active; 'I' for Inactive)
REMARK    1  A    between atoms: _1  and  _3
REMARK    2  A    between atoms: _3  and  _4
REMARK    3  A    between atoms: _3  and  _6
REMARK    4  A    between atoms: _6  and  _7
REMARK    5  A    between atoms: _7  and  _8
REMARK    6  A    between atoms: _8  and  _9
REMARK    7  A    between atoms: _9  and  _10
REMARK    8  A    between atoms: _14  and  _16
REMARK    9  A    between atoms: _16  and  _17
REMARK   10  A    between atoms: _16  and  _19
REMARK   11  A    between atoms: _19  and  _20
REMARK   12  A    between atoms: _20  and  _21
REMARK   13  A    between atoms: _21  and  _22
REMARK   14  A    between atoms: _22  and  _23
REMARK   15  A    between atoms: _27  and  _29
REMARK   16  A    between atoms: _29  and  _30
REMARK   17  A    between atoms: _29  and  _32
REMARK   18  A    between atoms: _32  and  _33
REMARK   19  A    between atoms: _36  and  _38
REMARK   20  A    between atoms: _38  and  _39
REMARK   21  A    between atoms: _38  and  _41
REMARK   22  A    between atoms: _41  and  _42
REMARK   23  A    between atoms: _45  and  _47
REMARK   24  A    between atoms: _47  and  _48
REMARK   25  A    between atoms: _47  and  _50
REMARK   26  A    between atoms: _53  and  _55
REMARK   27  A    between atoms: _55  and  _56
REMARK   28  A    between atoms: _58  and  _60
REMARK   29  A    between atoms: _60  and  _61
REMARK   30  A    between atoms: _60  and  _63
REMARK   31  A    between atoms: _64  and  _65
REMARK   32  A    between atoms: _67  and  _69
REMARK   33  A    between atoms: _69  and  _70
REMARK   34  A    between atoms: _69  and  _72
REMARK   35  A    between atoms: _72  and  _73
REMARK   36  A    between atoms: _76  and  _78
REMARK   37  A    between atoms: _78  and  _79
REMARK   38  A    between atoms: _78  and  _81
REMARK   39  A    between atoms: _84  and  _86
REMARK   40  A    between atoms: _86  and  _87
REMARK   41  A    between atoms: _86  and  _89
REMARK   42  A    between atoms: _89  and  _90
REMARK   43  A    between atoms: _93  and  _95
REMARK   44  A    between atoms: _95  and  _96
REMARK   45  A    between atoms: _95  and  _98
REMARK   46  A    between atoms: _98  and  _99
REMARK   47  A    between atoms: _99  and  _100
REMARK   48  A    between atoms: _103  and  _105
REMARK   49  A    between atoms: _105  and  _106
REMARK   50  A    between atoms: _105  and  _108
REMARK   51  A    between atoms: _108  and  _109
REMARK   52  A    between atoms: _112  and  _114
REMARK   53  A    between atoms: _114  and  _115
REMARK   54  A    between atoms: _114  and  _117
REMARK   55  A    between atoms: _120  and  _122
REMARK   56  A    between atoms: _122  and  _123
REMARK   57  A    between atoms: _122  and  _125
REMARK   58  A    between atoms: _128  and  _130
REMARK   59  A    between atoms: _130  and  _131
REMARK   60  A    between atoms: _130  and  _133
REMARK   61  A    between atoms: _134  and  _135
REMARK   62  A    between atoms: _138  and  _140
REMARK   63  A    between atoms: _140  and  _141
REMARK   64  A    between atoms: _140  and  _143
REMARK   65  A    between atoms: _143  and  _144
REMARK   66  A    between atoms: _144  and  _145
REMARK   67  A    between atoms: _150  and  _152
REMARK   68  A    between atoms: _152  and  _153
REMARK   69  A    between atoms: _152  and  _155
REMARK   70  A    between atoms: _155  and  _156
REMARK   71  A    between atoms: _159  and  _161
REMARK   72  A    between atoms: _161  and  _162
REMARK   73  A    between atoms: _161  and  _164
REMARK   74  A    between atoms: _164  and  _165
REMARK   75  A    between atoms: _168  and  _170
REMARK   76  A    between atoms: _170  and  _171
REMARK   77  A    between atoms: _170  and  _173
REMARK   78  A    between atoms: _173  and  _174
REMARK   79  A    between atoms: _174  and  _175
REMARK   80  A    between atoms: _175  and  _176
REMARK   81  A    between atoms: _185  and  _187
REMARK   82  A    between atoms: _187  and  _188
REMARK   83  A    between atoms: _187  and  _190
REMARK   84  A    between atoms: _190  and  _191
REMARK   85  A    between atoms: _194  and  _196
REMARK   86  A    between atoms: _196  and  _197
REMARK   87  A    between atoms: _196  and  _199
REMARK   88  A    between atoms: _199  and  _200
REMARK   89  A    between atoms: _200  and  _201
REMARK   90  A    between atoms: _201  and  _202
REMARK   91  A    between atoms: _211  and  _213
REMARK   92  A    between atoms: _213  and  _214
REMARK   93  A    between atoms: _213  and  _216
REMARK   94  A    between atoms: _216  and  _217
REMARK   95  A    between atoms: _220  and  _222
REMARK   96  A    between atoms: _222  and  _223
REMARK   97  A    between atoms: _225  and  _227
REMARK   98  A    between atoms: _227  and  _228
REMARK   99  A    between atoms: _227  and  _230
REMARK  100  A    between atoms: _230  and  _231
REMARK  101  A    between atoms: _231  and  _232
REMARK  102  A    between atoms: _235  and  _237
REMARK  103  A    between atoms: _237  and  _238
REMARK  104  A    between atoms: _237  and  _240
REMARK  105  A    between atoms: _240  and  _241
REMARK  106  A    between atoms: _244  and  _246
REMARK  107  A    between atoms: _246  and  _247
REMARK  108  A    between atoms: _250  and  _252
REMARK  109  A    between atoms: _252  and  _253
REMARK  110  A    between atoms: _252  and  _255
REMARK  111  A    between atoms: _255  and  _256
REMARK  112  A    between atoms: _261  and  _262
REMARK  113  A    between atoms: _261  and  _264
REMARK  114  A    between atoms: _264  and  _265
REMARK  115  A    between atoms: _267  and  _269
REMARK  116  A    between atoms: _269  and  _270
REMARK  117  A    between atoms: _273  and  _275
REMARK  118  A    between atoms: _275  and  _276
REMARK  119  A    between atoms: _275  and  _278
REMARK  120  A    between atoms: _278  and  _279
REMARK  121  A    between atoms: _282  and  _284
REMARK  122  A    between atoms: _284  and  _285
REMARK  123  A    between atoms: _284  and  _287
REMARK  124  A    between atoms: _287  and  _288
REMARK  125  A    between atoms: _291  and  _293
REMARK  126  A    between atoms: _293  and  _294
REMARK  127  A    between atoms: _293  and  _296
REMARK  128  A    between atoms: _296  and  _297
REMARK  129  A    between atoms: _297  and  _298
REMARK  130  A    between atoms: _298  and  _299
REMARK  131  A    between atoms: _308  and  _310
REMARK  132  A    between atoms: _310  and  _311
REMARK  133  A    between atoms: _310  and  _313
REMARK  134  A    between atoms: _316  and  _318
REMARK  135  A    between atoms: _318  and  _319
REMARK  136  A    between atoms: _318  and  _321
REMARK  137  A    between atoms: _321  and  _322
REMARK  138  A    between atoms: _322  and  _323
REMARK  139  A    between atoms: _323  and  _324
REMARK  140  A    between atoms: _333  and  _335
REMARK  141  A    between atoms: _335  and  _336
REMARK  142  A    between atoms: _338  and  _340
REMARK  143  A    between atoms: _340  and  _341
REMARK  144  A    between atoms: _340  and  _343
REMARK  145  A    between atoms: _343  and  _344
REMARK  146  A    between atoms: _350  and  _352
REMARK  147  A    between atoms: _352  and  _353
REMARK  148  A    between atoms: _353  and  _354
REMARK  149  A    between atoms: _353  and  _355
REMARK  150  A    between atoms: _354  and  MG_637
REMARK  151  A    between atoms: _355  and  _357
REMARK  152  A    between atoms: _357  and  _358
REMARK  153  A    between atoms: _357  and  _360
REMARK  154  A    between atoms: _360  and  _361
REMARK  155  A    between atoms: _361  and  _362
REMARK  156  A    between atoms: _362  and  _363
REMARK  157  A    between atoms: _372  and  _374
REMARK  158  A    between atoms: _374  and  _375
REMARK  159  A    between atoms: _374  and  _377
REMARK  160  A    between atoms: _377  and  _378
REMARK  161  A    between atoms: _378  and  _379
REMARK  162  A    between atoms: _384  and  _386
REMARK  163  A    between atoms: _386  and  _387
REMARK  164  A    between atoms: _386  and  _389
REMARK  165  A    between atoms: _389  and  _390
REMARK  166  A    between atoms: _390  and  _391
REMARK  167  A    between atoms: _391  and  _392
REMARK  168  A    between atoms: _392  and  _393
REMARK  169  A    between atoms: _397  and  _399
REMARK  170  A    between atoms: _399  and  _400
REMARK  171  A    between atoms: _399  and  _402
REMARK  172  A    between atoms: _402  and  _403
REMARK  173  A    between atoms: _403  and  _404
REMARK  174  A    between atoms: _409  and  _411
REMARK  175  A    between atoms: _411  and  _412
REMARK  176  A    between atoms: _411  and  _414
REMARK  177  A    between atoms: _414  and  _415
REMARK  178  A    between atoms: _418  and  _420
REMARK  179  A    between atoms: _420  and  _421
REMARK  180  A    between atoms: _420  and  _423
REMARK  181  A    between atoms: _423  and  _424
REMARK  182  A    between atoms: _424  and  _425
REMARK  183  A    between atoms: _428  and  _430
REMARK  184  A    between atoms: _430  and  _431
REMARK  185  A    between atoms: _430  and  _433
REMARK  186  A    between atoms: _434  and  _435
REMARK  187  A    between atoms: _435  and  _436
REMARK  188  A    between atoms: _445  and  _447
REMARK  189  A    between atoms: _447  and  _448
REMARK  190  A    between atoms: _447  and  _450
REMARK  191  A    between atoms: _450  and  _451
REMARK  192  A    between atoms: _454  and  _456
REMARK  193  A    between atoms: _456  and  _457
REMARK  194  A    between atoms: _456  and  _459
REMARK  195  A    between atoms: _459  and  _460
REMARK  196  A    between atoms: _460  and  _461
REMARK  197  A    between atoms: _464  and  _466
REMARK  198  A    between atoms: _466  and  _467
REMARK  199  A    between atoms: _466  and  _469
REMARK  200  A    between atoms: _469  and  _470
REMARK  201  A    between atoms: _476  and  _478
REMARK  202  A    between atoms: _478  and  _479
REMARK  203  A    between atoms: _478  and  _481
REMARK  204  A    between atoms: _481  and  _482
REMARK  205  A    between atoms: _485  and  _487
REMARK  206  A    between atoms: _487  and  _488
REMARK  207  A    between atoms: _487  and  _490
REMARK  208  A    between atoms: _490  and  _491
REMARK  209  A    between atoms: _491  and  _492
REMARK  210  A    between atoms: _497  and  _499
REMARK  211  A    between atoms: _499  and  _500
REMARK  212  A    between atoms: _499  and  _502
REMARK  213  A    between atoms: _502  and  _503
REMARK  214  A    between atoms: _503  and  _504
REMARK  215  A    between atoms: _504  and  _505
REMARK  216  A    between atoms: _505  and  _506
REMARK  217  A    between atoms: _510  and  _512
REMARK  218  A    between atoms: _512  and  _513
REMARK  219  A    between atoms: _512  and  _515
REMARK  220  A    between atoms: _515  and  _516
REMARK  221  A    between atoms: _519  and  _521
REMARK  222  A    between atoms: _521  and  _522
REMARK  223  A    between atoms: _521  and  _524
REMARK  224  A    between atoms: _524  and  _525
REMARK  225  A    between atoms: _525  and  _526
REMARK  226  A    between atoms: _526  and  _527
REMARK  227  A    between atoms: _527  and  _528
REMARK  228  A    between atoms: _532  and  _534
REMARK  229  A    between atoms: _534  and  _535
REMARK  230  A    between atoms: _534  and  _537
REMARK  231  A    between atoms: _537  and  _538
REMARK  232  A    between atoms: _538  and  _539
REMARK  233  A    between atoms: _539  and  _540
REMARK  234  A    between atoms: _549  and  _551
REMARK  235  A    between atoms: _551  and  _552
REMARK  236  A    between atoms: _551  and  _554
REMARK  237  A    between atoms: _554  and  _555
REMARK  238  A    between atoms: _558  and  _560
REMARK  239  A    between atoms: _560  and  _561
REMARK  240  A    between atoms: _563  and  _565
REMARK  241  A    between atoms: _565  and  _566
REMARK  242  A    between atoms: _565  and  _568
REMARK  243  A    between atoms: _568  and  _569
REMARK  244  A    between atoms: _569  and  _570
REMARK  245  A    between atoms: _573  and  _575
REMARK  246  A    between atoms: _575  and  _576
REMARK  247  A    between atoms: _575  and  _578
REMARK  248  A    between atoms: _578  and  _579
REMARK  249  A    between atoms: _584  and  _586
REMARK  250  A    between atoms: _586  and  _587
REMARK  251  A    between atoms: _589  and  _591
REMARK  252  A    between atoms: _591  and  _592
REMARK  253  A    between atoms: _591  and  _594
REMARK  254  A    between atoms: _594  and  _595
REMARK  255  A    between atoms: _598  and  _600
REMARK  256  A    between atoms: _600  and  _601
REMARK  257  A    between atoms: _603  and  _605
REMARK  258  A    between atoms: _605  and  _606
REMARK  259  A    between atoms: _605  and  _608
REMARK  260  A    between atoms: _608  and  _609
REMARK  261  A    between atoms: _609  and  _610
REMARK  262  A    between atoms: _610  and  _611
REMARK  263  A    between atoms: _611  and  _612
REMARK  264  A    between atoms: _616  and  _618
REMARK  265  A    between atoms: _618  and  _619
REMARK  266  A    between atoms: _618  and  _621
REMARK  267  A    between atoms: _621  and  _622
REMARK  268  A    between atoms: _625  and  _627
REMARK  269  A    between atoms: _627  and  _628
REMARK  270  A    between atoms: _627  and  _630
REMARK  271  A    between atoms: _630  and  _631
REMARK                            x       y       z     vdW  Elec       q    Type
REMARK                         _______ _______ _______ _____ _____    ______ ____
ROOT
ATOM      1  O   HOH     1      54.713 -22.309  57.939  0.00  0.00    +0.000 OA
ENDROOT
TORSDOF 0
REMARK  Name = ../refined-set-2016/2xbp/2xbp_pocket.pdb
REMARK  271 active torsions:
REMARK  status: ('A' for Active; 'I' for Inactive)
REMARK    1  A    between atoms: _1  and  _3
REMARK    2  A    between atoms: _3  and  _4
REMARK    3  A    between atoms: _3  and  _6
REMARK    4  A    between atoms: _6  and  _7
REMARK    5  A    between atoms: _7  and  _8
REMARK    6  A    between atoms: _8  and  _9
REMARK    7  A    between atoms: _9  and  _10
REMARK    8  A    between atoms: _14  and  _16
REMARK    9  A    between atoms: _16  and  _17
REMARK   10  A    between atoms: _16  and  _19
REMARK   11  A    between atoms: _19  and  _20
REMARK   12  A    between atoms: _20  and  _21
REMARK   13  A    between atoms: _21  and  _22
REMARK   14  A    between atoms: _22  and  _23
REMARK   15  A    between atoms: _27  and  _29
REMARK   16  A    between atoms: _29  and  _30
REMARK   17  A    between atoms: _29  and  _32
REMARK   18  A    between atoms: _32  and  _33
REMARK   19  A    between atoms: _36  and  _38
REMARK   20  A    between atoms: _38  and  _39
REMARK   21  A    between atoms: _38  and  _41
REMARK   22  A    between atoms: _41  and  _42
REMARK   23  A    between atoms: _45  and  _47
REMARK   24  A    between atoms: _47  and  _48
REMARK   25  A    between atoms: _47  and  _50
REMARK   26  A    between atoms: _53  and  _55
REMARK   27  A    between atoms: _55  and  _56
REMARK   28  A    between atoms: _58  and  _60
REMARK   29  A    between atoms: _60  and  _61
REMARK   30  A    between atoms: _60  and  _63
REMARK   31  A    between atoms: _64  and  _65
REMARK   32  A    between atoms: _67  and  _69
REMARK   33  A    between atoms: _69  and  _70
REMARK   34  A    between atoms: _69  and  _72
REMARK   35  A    between atoms: _72  and  _73
REMARK   36  A    between atoms: _76  and  _78
REMARK   37  A    between atoms: _78  and  _79
REMARK   38  A    between atoms: _78  and  _81
REMARK   39  A    between atoms: _84  and  _86
REMARK   40  A    between atoms: _86  and  _87
REMARK   41  A    between atoms: _86  and  _89
REMARK   42  A    between atoms: _89  and  _90
REMARK   43  A    between atoms: _93  and  _95
REMARK   44  A    between atoms: _95  and  _96
REMARK   45  A    between atoms: _95  and  _98
REMARK   46  A    between atoms: _98  and  _99
REMARK   47  A    between atoms: _99  and  _100
REMARK   48  A    between atoms: _103  and  _105
REMARK   49  A    between atoms: _105  and  _106
REMARK   50  A    between atoms: _105  and  _108
REMARK   51  A    between atoms: _108  and  _109
REMARK   52  A    between atoms: _112  and  _114
REMARK   53  A    between atoms: _114  and  _115
REMARK   54  A    between atoms: _114  and  _117
REMARK   55  A    between atoms: _120  and  _122
REMARK   56  A    between atoms: _122  and  _123
REMARK   57  A    between atoms: _122  and  _125
REMARK   58  A    between atoms: _128  and  _130
REMARK   59  A    between atoms: _130  and  _131
REMARK   60  A    between atoms: _130  and  _133
REMARK   61  A    between atoms: _134  and  _135
REMARK   62  A    between atoms: _138  and  _140
REMARK   63  A    between atoms: _140  and  _141
REMARK   64  A    between atoms: _140  and  _143
REMARK   65  A    between atoms: _143  and  _144
REMARK   66  A    between atoms: _144  and  _145
REMARK   67  A    between atoms: _150  and  _152
REMARK   68  A    between atoms: _152  and  _153
REMARK   69  A    between atoms: _152  and  _155
REMARK   70  A    between atoms: _155  and  _156
REMARK   71  A    between atoms: _159  and  _161
REMARK   72  A    between atoms: _161  and  _162
REMARK   73  A    between atoms: _161  and  _164
REMARK   74  A    between atoms: _164  and  _165
REMARK   75  A    between atoms: _168  and  _170
REMARK   76  A    between atoms: _170  and  _171
REMARK   77  A    between atoms: _170  and  _173
REMARK   78  A    between atoms: _173  and  _174
REMARK   79  A    between atoms: _174  and  _175
REMARK   80  A    between atoms: _175  and  _176
REMARK   81  A    between atoms: _185  and  _187
REMARK   82  A    between atoms: _187  and  _188
REMARK   83  A    between atoms: _187  and  _190
REMARK   84  A    between atoms: _190  and  _191
REMARK   85  A    between atoms: _194  and  _196
REMARK   86  A    between atoms: _196  and  _197
REMARK   87  A    between atoms: _196  and  _199
REMARK   88  A    between atoms: _199  and  _200
REMARK   89  A    between atoms: _200  and  _201
REMARK   90  A    between atoms: _201  and  _202
REMARK   91  A    between atoms: _211  and  _213
REMARK   92  A    between atoms: _213  and  _214
REMARK   93  A    between atoms: _213  and  _216
REMARK   94  A    between atoms: _216  and  _217
REMARK   95  A    between atoms: _220  and  _222
REMARK   96  A    between atoms: _222  and  _223
REMARK   97  A    between atoms: _225  and  _227
REMARK   98  A    between atoms: _227  and  _228
REMARK   99  A    between atoms: _227  and  _230
REMARK  100  A    between atoms: _230  and  _231
REMARK  101  A    between atoms: _231  and  _232
REMARK  102  A    between atoms: _235  and  _237
REMARK  103  A    between atoms: _237  and  _238
REMARK  104  A    between atoms: _237  and  _240
REMARK  105  A    between atoms: _240  and  _241
REMARK  106  A    between atoms: _244  and  _246
REMARK  107  A    between atoms: _246  and  _247
REMARK  108  A    between atoms: _250  and  _252
REMARK  109  A    between atoms: _252  and  _253
REMARK  110  A    between atoms: _252  and  _255
REMARK  111  A    between atoms: _255  and  _256
REMARK  112  A    between atoms: _261  and  _262
REMARK  113  A    between atoms: _261  and  _264
REMARK  114  A    between atoms: _264  and  _265
REMARK  115  A    between atoms: _267  and  _269
REMARK  116  A    between atoms: _269  and  _270
REMARK  117  A    between atoms: _273  and  _275
REMARK  118  A    between atoms: _275  and  _276
REMARK  119  A    between atoms: _275  and  _278
REMARK  120  A    between atoms: _278  and  _279
REMARK  121  A    between atoms: _282  and  _284
REMARK  122  A    between atoms: _284  and  _285
REMARK  123  A    between atoms: _284  and  _287
REMARK  124  A    between atoms: _287  and  _288
REMARK  125  A    between atoms: _291  and  _293
REMARK  126  A    between atoms: _293  and  _294
REMARK  127  A    between atoms: _293  and  _296
REMARK  128  A    between atoms: _296  and  _297
REMARK  129  A    between atoms: _297  and  _298
REMARK  130  A    between atoms: _298  and  _299
REMARK  131  A    between atoms: _308  and  _310
REMARK  132  A    between atoms: _310  and  _311
REMARK  133  A    between atoms: _310  and  _313
REMARK  134  A    between atoms: _316  and  _318
REMARK  135  A    between atoms: _318  and  _319
REMARK  136  A    between atoms: _318  and  _321
REMARK  137  A    between atoms: _321  and  _322
REMARK  138  A    between atoms: _322  and  _323
REMARK  139  A    between atoms: _323  and  _324
REMARK  140  A    between atoms: _333  and  _335
REMARK  141  A    between atoms: _335  and  _336
REMARK  142  A    between atoms: _338  and  _340
REMARK  143  A    between atoms: _340  and  _341
REMARK  144  A    between atoms: _340  and  _343
REMARK  145  A    between atoms: _343  and  _344
REMARK  146  A    between atoms: _350  and  _352
REMARK  147  A    between atoms: _352  and  _353
REMARK  148  A    between atoms: _353  and  _354
REMARK  149  A    between atoms: _353  and  _355
REMARK  150  A    between atoms: _354  and  MG_637
REMARK  151  A    between atoms: _355  and  _357
REMARK  152  A    between atoms: _357  and  _358
REMARK  153  A    between atoms: _357  and  _360
REMARK  154  A    between atoms: _360  and  _361
REMARK  155  A    between atoms: _361  and  _362
REMARK  156  A    between atoms: _362  and  _363
REMARK  157  A    between atoms: _372  and  _374
REMARK  158  A    between atoms: _374  and  _375
REMARK  159  A    between atoms: _374  and  _377
REMARK  160  A    between atoms: _377  and  _378
REMARK  161  A    between atoms: _378  and  _379
REMARK  162  A    between atoms: _384  and  _386
REMARK  163  A    between atoms: _386  and  _387
REMARK  164  A    between atoms: _386  and  _389
REMARK  165  A    between atoms: _389  and  _390
REMARK  166  A    between atoms: _390  and  _391
REMARK  167  A    between atoms: _391  and  _392
REMARK  168  A    between atoms: _392  and  _393
REMARK  169  A    between atoms: _397  and  _399
REMARK  170  A    between atoms: _399  and  _400
REMARK  171  A    between atoms: _399  and  _402
REMARK  172  A    between atoms: _402  and  _403
REMARK  173  A    between atoms: _403  and  _404
REMARK  174  A    between atoms: _409  and  _411
REMARK  175  A    between atoms: _411  and  _412
REMARK  176  A    between atoms: _411  and  _414
REMARK  177  A    between atoms: _414  and  _415
REMARK  178  A    between atoms: _418  and  _420
REMARK  179  A    between atoms: _420  and  _421
REMARK  180  A    between atoms: _420  and  _423
REMARK  181  A    between atoms: _423  and  _424
REMARK  182  A    between atoms: _424  and  _425
REMARK  183  A    between atoms: _428  and  _430
REMARK  184  A    between atoms: _430  and  _431
REMARK  185  A    between atoms: _430  and  _433
REMARK  186  A    between atoms: _434  and  _435
REMARK  187  A    between atoms: _435  and  _436
REMARK  188  A    between atoms: _445  and  _447
REMARK  189  A    between atoms: _447  and  _448
REMARK  190  A    between atoms: _447  and  _450
REMARK  191  A    between atoms: _450  and  _451
REMARK  192  A    between atoms: _454  and  _456
REMARK  193  A    between atoms: _456  and  _457
REMARK  194  A    between atoms: _456  and  _459
REMARK  195  A    between atoms: _459  and  _460
REMARK  196  A    between atoms: _460  and  _461
REMARK  197  A    between atoms: _464  and  _466
REMARK  198  A    between atoms: _466  and  _467
REMARK  199  A    between atoms: _466  and  _469
REMARK  200  A    between atoms: _469  and  _470
REMARK  201  A    between atoms: _476  and  _478
REMARK  202  A    between atoms: _478  and  _479
REMARK  203  A    between atoms: _478  and  _481
REMARK  204  A    between atoms: _481  and  _482
REMARK  205  A    between atoms: _485  and  _487
REMARK  206  A    between atoms: _487  and  _488
REMARK  207  A    between atoms: _487  and  _490
REMARK  208  A    between atoms: _490  and  _491
REMARK  209  A    between atoms: _491  and  _492
REMARK  210  A    between atoms: _497  and  _499
REMARK  211  A    between atoms: _499  and  _500
REMARK  212  A    between atoms: _499  and  _502
REMARK  213  A    between atoms: _502  and  _503
REMARK  214  A    between atoms: _503  and  _504
REMARK  215  A    between atoms: _504  and  _505
REMARK  216  A    between atoms: _505  and  _506
REMARK  217  A    between atoms: _510  and  _512
REMARK  218  A    between atoms: _512  and  _513
REMARK  219  A    between atoms: _512  and  _515
REMARK  220  A    between atoms: _515  and  _516
REMARK  221  A    between atoms: _519  and  _521
REMARK  222  A    between atoms: _521  and  _522
REMARK  223  A    between atoms: _521  and  _524
REMARK  224  A    between atoms: _524  and  _525
REMARK  225  A    between atoms: _525  and  _526
REMARK  226  A    between atoms: _526  and  _527
REMARK  227  A    between atoms: _527  and  _528
REMARK  228  A    between atoms: _532  and  _534
REMARK  229  A    between atoms: _534  and  _535
REMARK  230  A    between atoms: _534  and  _537
REMARK  231  A    between atoms: _537  and  _538
REMARK  232  A    between atoms: _538  and  _539
REMARK  233  A    between atoms: _539  and  _540
REMARK  234  A    between atoms: _549  and  _551
REMARK  235  A    between atoms: _551  and  _552
REMARK  236  A    between atoms: _551  and  _554
REMARK  237  A    between atoms: _554  and  _555
REMARK  238  A    between atoms: _558  and  _560
REMARK  239  A    between atoms: _560  and  _561
REMARK  240  A    between atoms: _563  and  _565
REMARK  241  A    between atoms: _565  and  _566
REMARK  242  A    between atoms: _565  and  _568
REMARK  243  A    between atoms: _568  and  _569
REMARK  244  A    between atoms: _569  and  _570
REMARK  245  A    between atoms: _573  and  _575
REMARK  246  A    between atoms: _575  and  _576
REMARK  247  A    between atoms: _575  and  _578
REMARK  248  A    between atoms: _578  and  _579
REMARK  249  A    between atoms: _584  and  _586
REMARK  250  A    between atoms: _586  and  _587
REMARK  251  A    between atoms: _589  and  _591
REMARK  252  A    between atoms: _591  and  _592
REMARK  253  A    between atoms: _591  and  _594
REMARK  254  A    between atoms: _594  and  _595
REMARK  255  A    between atoms: _598  and  _600
REMARK  256  A    between atoms: _600  and  _601
REMARK  257  A    between atoms: _603  and  _605
REMARK  258  A    between atoms: _605  and  _606
REMARK  259  A    between atoms: _605  and  _608
REMARK  260  A    between atoms: _608  and  _609
REMARK  261  A    between atoms: _609  and  _610
REMARK  262  A    between atoms: _610  and  _611
REMARK  263  A    between atoms: _611  and  _612
REMARK  264  A    between atoms: _616  and  _618
REMARK  265  A    between atoms: _618  and  _619
REMARK  266  A    between atoms: _618  and  _621
REMARK  267  A    between atoms: _621  and  _622
REMARK  268  A    between atoms: _625  and  _627
REMARK  269  A    between atoms: _627  and  _628
REMARK  270  A    between atoms: _627  and  _630
REMARK  271  A    between atoms: _630  and  _631
REMARK                            x       y       z     vdW  Elec       q    Type
REMARK                         _______ _______ _______ _____ _____    ______ ____
ROOT
ATOM      1  O   HOH     1      54.385 -19.640  57.816  0.00  0.00    +0.000 OA
ENDROOT
TORSDOF 0
REMARK  Name = ../refined-set-2016/2xbp/2xbp_pocket.pdb
REMARK  271 active torsions:
REMARK  status: ('A' for Active; 'I' for Inactive)
REMARK    1  A    between atoms: _1  and  _3
REMARK    2  A    between atoms: _3  and  _4
REMARK    3  A    between atoms: _3  and  _6
REMARK    4  A    between atoms: _6  and  _7
REMARK    5  A    between atoms: _7  and  _8
REMARK    6  A    between atoms: _8  and  _9
REMARK    7  A    between atoms: _9  and  _10
REMARK    8  A    between atoms: _14  and  _16
REMARK    9  A    between atoms: _16  and  _17
REMARK   10  A    between atoms: _16  and  _19
REMARK   11  A    between atoms: _19  and  _20
REMARK   12  A    between atoms: _20  and  _21
REMARK   13  A    between atoms: _21  and  _22
REMARK   14  A    between atoms: _22  and  _23
REMARK   15  A    between atoms: _27  and  _29
REMARK   16  A    between atoms: _29  and  _30
REMARK   17  A    between atoms: _29  and  _32
REMARK   18  A    between atoms: _32  and  _33
REMARK   19  A    between atoms: _36  and  _38
REMARK   20  A    between atoms: _38  and  _39
REMARK   21  A    between atoms: _38  and  _41
REMARK   22  A    between atoms: _41  and  _42
REMARK   23  A    between atoms: _45  and  _47
REMARK   24  A    between atoms: _47  and  _48
REMARK   25  A    between atoms: _47  and  _50
REMARK   26  A    between atoms: _53  and  _55
REMARK   27  A    between atoms: _55  and  _56
REMARK   28  A    between atoms: _58  and  _60
REMARK   29  A    between atoms: _60  and  _61
REMARK   30  A    between atoms: _60  and  _63
REMARK   31  A    between atoms: _64  and  _65
REMARK   32  A    between atoms: _67  and  _69
REMARK   33  A    between atoms: _69  and  _70
REMARK   34  A    between atoms: _69  and  _72
REMARK   35  A    between atoms: _72  and  _73
REMARK   36  A    between atoms: _76  and  _78
REMARK   37  A    between atoms: _78  and  _79
REMARK   38  A    between atoms: _78  and  _81
REMARK   39  A    between atoms: _84  and  _86
REMARK   40  A    between atoms: _86  and  _87
REMARK   41  A    between atoms: _86  and  _89
REMARK   42  A    between atoms: _89  and  _90
REMARK   43  A    between atoms: _93  and  _95
REMARK   44  A    between atoms: _95  and  _96
REMARK   45  A    between atoms: _95  and  _98
REMARK   46  A    between atoms: _98  and  _99
REMARK   47  A    between atoms: _99  and  _100
REMARK   48  A    between atoms: _103  and  _105
REMARK   49  A    between atoms: _105  and  _106
REMARK   50  A    between atoms: _105  and  _108
REMARK   51  A    between atoms: _108  and  _109
REMARK   52  A    between atoms: _112  and  _114
REMARK   53  A    between atoms: _114  and  _115
REMARK   54  A    between atoms: _114  and  _117
REMARK   55  A    between atoms: _120  and  _122
REMARK   56  A    between atoms: _122  and  _123
REMARK   57  A    between atoms: _122  and  _125
REMARK   58  A    between atoms: _128  and  _130
REMARK   59  A    between atoms: _130  and  _131
REMARK   60  A    between atoms: _130  and  _133
REMARK   61  A    between atoms: _134  and  _135
REMARK   62  A    between atoms: _138  and  _140
REMARK   63  A    between atoms: _140  and  _141
REMARK   64  A    between atoms: _140  and  _143
REMARK   65  A    between atoms: _143  and  _144
REMARK   66  A    between atoms: _144  and  _145
REMARK   67  A    between atoms: _150  and  _152
REMARK   68  A    between atoms: _152  and  _153
REMARK   69  A    between atoms: _152  and  _155
REMARK   70  A    between atoms: _155  and  _156
REMARK   71  A    between atoms: _159  and  _161
REMARK   72  A    between atoms: _161  and  _162
REMARK   73  A    between atoms: _161  and  _164
REMARK   74  A    between atoms: _164  and  _165
REMARK   75  A    between atoms: _168  and  _170
REMARK   76  A    between atoms: _170  and  _171
REMARK   77  A    between atoms: _170  and  _173
REMARK   78  A    between atoms: _173  and  _174
REMARK   79  A    between atoms: _174  and  _175
REMARK   80  A    between atoms: _175  and  _176
REMARK   81  A    between atoms: _185  and  _187
REMARK   82  A    between atoms: _187  and  _188
REMARK   83  A    between atoms: _187  and  _190
REMARK   84  A    between atoms: _190  and  _191
REMARK   85  A    between atoms: _194  and  _196
REMARK   86  A    between atoms: _196  and  _197
REMARK   87  A    between atoms: _196  and  _199
REMARK   88  A    between atoms: _199  and  _200
REMARK   89  A    between atoms: _200  and  _201
REMARK   90  A    between atoms: _201  and  _202
REMARK   91  A    between atoms: _211  and  _213
REMARK   92  A    between atoms: _213  and  _214
REMARK   93  A    between atoms: _213  and  _216
REMARK   94  A    between atoms: _216  and  _217
REMARK   95  A    between atoms: _220  and  _222
REMARK   96  A    between atoms: _222  and  _223
REMARK   97  A    between atoms: _225  and  _227
REMARK   98  A    between atoms: _227  and  _228
REMARK   99  A    between atoms: _227  and  _230
REMARK  100  A    between atoms: _230  and  _231
REMARK  101  A    between atoms: _231  and  _232
REMARK  102  A    between atoms: _235  and  _237
REMARK  103  A    between atoms: _237  and  _238
REMARK  104  A    between atoms: _237  and  _240
REMARK  105  A    between atoms: _240  and  _241
REMARK  106  A    between atoms: _244  and  _246
REMARK  107  A    between atoms: _246  and  _247
REMARK  108  A    between atoms: _250  and  _252
REMARK  109  A    between atoms: _252  and  _253
REMARK  110  A    between atoms: _252  and  _255
REMARK  111  A    between atoms: _255  and  _256
REMARK  112  A    between atoms: _261  and  _262
REMARK  113  A    between atoms: _261  and  _264
REMARK  114  A    between atoms: _264  and  _265
REMARK  115  A    between atoms: _267  and  _269
REMARK  116  A    between atoms: _269  and  _270
REMARK  117  A    between atoms: _273  and  _275
REMARK  118  A    between atoms: _275  and  _276
REMARK  119  A    between atoms: _275  and  _278
REMARK  120  A    between atoms: _278  and  _279
REMARK  121  A    between atoms: _282  and  _284
REMARK  122  A    between atoms: _284  and  _285
REMARK  123  A    between atoms: _284  and  _287
REMARK  124  A    between atoms: _287  and  _288
REMARK  125  A    between atoms: _291  and  _293
REMARK  126  A    between atoms: _293  and  _294
REMARK  127  A    between atoms: _293  and  _296
REMARK  128  A    between atoms: _296  and  _297
REMARK  129  A    between atoms: _297  and  _298
REMARK  130  A    between atoms: _298  and  _299
REMARK  131  A    between atoms: _308  and  _310
REMARK  132  A    between atoms: _310  and  _311
REMARK  133  A    between atoms: _310  and  _313
REMARK  134  A    between atoms: _316  and  _318
REMARK  135  A    between atoms: _318  and  _319
REMARK  136  A    between atoms: _318  and  _321
REMARK  137  A    between atoms: _321  and  _322
REMARK  138  A    between atoms: _322  and  _323
REMARK  139  A    between atoms: _323  and  _324
REMARK  140  A    between atoms: _333  and  _335
REMARK  141  A    between atoms: _335  and  _336
REMARK  142  A    between atoms: _338  and  _340
REMARK  143  A    between atoms: _340  and  _341
REMARK  144  A    between atoms: _340  and  _343
REMARK  145  A    between atoms: _343  and  _344
REMARK  146  A    between atoms: _350  and  _352
REMARK  147  A    between atoms: _352  and  _353
REMARK  148  A    between atoms: _353  and  _354
REMARK  149  A    between atoms: _353  and  _355
REMARK  150  A    between atoms: _354  and  MG_637
REMARK  151  A    between atoms: _355  and  _357
REMARK  152  A    between atoms: _357  and  _358
REMARK  153  A    between atoms: _357  and  _360
REMARK  154  A    between atoms: _360  and  _361
REMARK  155  A    between atoms: _361  and  _362
REMARK  156  A    between atoms: _362  and  _363
REMARK  157  A    between atoms: _372  and  _374
REMARK  158  A    between atoms: _374  and  _375
REMARK  159  A    between atoms: _374  and  _377
REMARK  160  A    between atoms: _377  and  _378
REMARK  161  A    between atoms: _378  and  _379
REMARK  162  A    between atoms: _384  and  _386
REMARK  163  A    between atoms: _386  and  _387
REMARK  164  A    between atoms: _386  and  _389
REMARK  165  A    between atoms: _389  and  _390
REMARK  166  A    between atoms: _390  and  _391
REMARK  167  A    between atoms: _391  and  _392
REMARK  168  A    between atoms: _392  and  _393
REMARK  169  A    between atoms: _397  and  _399
REMARK  170  A    between atoms: _399  and  _400
REMARK  171  A    between atoms: _399  and  _402
REMARK  172  A    between atoms: _402  and  _403
REMARK  173  A    between atoms: _403  and  _404
REMARK  174  A    between atoms: _409  and  _411
REMARK  175  A    between atoms: _411  and  _412
REMARK  176  A    between atoms: _411  and  _414
REMARK  177  A    between atoms: _414  and  _415
REMARK  178  A    between atoms: _418  and  _420
REMARK  179  A    between atoms: _420  and  _421
REMARK  180  A    between atoms: _420  and  _423
REMARK  181  A    between atoms: _423  and  _424
REMARK  182  A    between atoms: _424  and  _425
REMARK  183  A    between atoms: _428  and  _430
REMARK  184  A    between atoms: _430  and  _431
REMARK  185  A    between atoms: _430  and  _433
REMARK  186  A    between atoms: _434  and  _435
REMARK  187  A    between atoms: _435  and  _436
REMARK  188  A    between atoms: _445  and  _447
REMARK  189  A    between atoms: _447  and  _448
REMARK  190  A    between atoms: _447  and  _450
REMARK  191  A    between atoms: _450  and  _451
REMARK  192  A    between atoms: _454  and  _456
REMARK  193  A    between atoms: _456  and  _457
REMARK  194  A    between atoms: _456  and  _459
REMARK  195  A    between atoms: _459  and  _460
REMARK  196  A    between atoms: _460  and  _461
REMARK  197  A    between atoms: _464  and  _466
REMARK  198  A    between atoms: _466  and  _467
REMARK  199  A    between atoms: _466  and  _469
REMARK  200  A    between atoms: _469  and  _470
REMARK  201  A    between atoms: _476  and  _478
REMARK  202  A    between atoms: _478  and  _479
REMARK  203  A    between atoms: _478  and  _481
REMARK  204  A    between atoms: _481  and  _482
REMARK  205  A    between atoms: _485  and  _487
REMARK  206  A    between atoms: _487  and  _488
REMARK  207  A    between atoms: _487  and  _490
REMARK  208  A    between atoms: _490  and  _491
REMARK  209  A    between atoms: _491  and  _492
REMARK  210  A    between atoms: _497  and  _499
REMARK  211  A    between atoms: _499  and  _500
REMARK  212  A    between atoms: _499  and  _502
REMARK  213  A    between atoms: _502  and  _503
REMARK  214  A    between atoms: _503  and  _504
REMARK  215  A    between atoms: _504  and  _505
REMARK  216  A    between atoms: _505  and  _506
REMARK  217  A    between atoms: _510  and  _512
REMARK  218  A    between atoms: _512  and  _513
REMARK  219  A    between atoms: _512  and  _515
REMARK  220  A    between atoms: _515  and  _516
REMARK  221  A    between atoms: _519  and  _521
REMARK  222  A    between atoms: _521  and  _522
REMARK  223  A    between atoms: _521  and  _524
REMARK  224  A    between atoms: _524  and  _525
REMARK  225  A    between atoms: _525  and  _526
REMARK  226  A    between atoms: _526  and  _527
REMARK  227  A    between atoms: _527  and  _528
REMARK  228  A    between atoms: _532  and  _534
REMARK  229  A    between atoms: _534  and  _535
REMARK  230  A    between atoms: _534  and  _537
REMARK  231  A    between atoms: _537  and  _538
REMARK  232  A    between atoms: _538  and  _539
REMARK  233  A    between atoms: _539  and  _540
REMARK  234  A    between atoms: _549  and  _551
REMARK  235  A    between atoms: _551  and  _552
REMARK  236  A    between atoms: _551  and  _554
REMARK  237  A    between atoms: _554  and  _555
REMARK  238  A    between atoms: _558  and  _560
REMARK  239  A    between atoms: _560  and  _561
REMARK  240  A    between atoms: _563  and  _565
REMARK  241  A    between atoms: _565  and  _566
REMARK  242  A    between atoms: _565  and  _568
REMARK  243  A    between atoms: _568  and  _569
REMARK  244  A    between atoms: _569  and  _570
REMARK  245  A    between atoms: _573  and  _575
REMARK  246  A    between atoms: _575  and  _576
REMARK  247  A    between atoms: _575  and  _578
REMARK  248  A    between atoms: _578  and  _579
REMARK  249  A    between atoms: _584  and  _586
REMARK  250  A    between atoms: _586  and  _587
REMARK  251  A    between atoms: _589  and  _591
REMARK  252  A    between atoms: _591  and  _592
REMARK  253  A    between atoms: _591  and  _594
REMARK  254  A    between atoms: _594  and  _595
REMARK  255  A    between atoms: _598  and  _600
REMARK  256  A    between atoms: _600  and  _601
REMARK  257  A    between atoms: _603  and  _605
REMARK  258  A    between atoms: _605  and  _606
REMARK  259  A    between atoms: _605  and  _608
REMARK  260  A    between atoms: _608  and  _609
REMARK  261  A    between atoms: _609  and  _610
REMARK  262  A    between atoms: _610  and  _611
REMARK  263  A    between atoms: _611  and  _612
REMARK  264  A    between atoms: _616  and  _618
REMARK  265  A    between atoms: _618  and  _619
REMARK  266  A    between atoms: _618  and  _621
REMARK  267  A    between atoms: _621  and  _622
REMARK  268  A    between atoms: _625  and  _627
REMARK  269  A    between atoms: _627  and  _628
REMARK  270  A    between atoms: _627  and  _630
REMARK  271  A    between atoms: _630  and  _631
REMARK                            x       y       z     vdW  Elec       q    Type
REMARK                         _______ _______ _______ _____ _____    ______ ____
ROOT
ATOM      1  O   HOH     1      51.189 -14.059  60.332  0.00  0.00    +0.000 OA
ENDROOT
TORSDOF 0
REMARK  Name = ../refined-set-2016/2xbp/2xbp_pocket.pdb
REMARK  271 active torsions:
REMARK  status: ('A' for Active; 'I' for Inactive)
REMARK    1  A    between atoms: _1  and  _3
REMARK    2  A    between atoms: _3  and  _4
REMARK    3  A    between atoms: _3  and  _6
REMARK    4  A    between atoms: _6  and  _7
REMARK    5  A    between atoms: _7  and  _8
REMARK    6  A    between atoms: _8  and  _9
REMARK    7  A    between atoms: _9  and  _10
REMARK    8  A    between atoms: _14  and  _16
REMARK    9  A    between atoms: _16  and  _17
REMARK   10  A    between atoms: _16  and  _19
REMARK   11  A    between atoms: _19  and  _20
REMARK   12  A    between atoms: _20  and  _21
REMARK   13  A    between atoms: _21  and  _22
REMARK   14  A    between atoms: _22  and  _23
REMARK   15  A    between atoms: _27  and  _29
REMARK   16  A    between atoms: _29  and  _30
REMARK   17  A    between atoms: _29  and  _32
REMARK   18  A    between atoms: _32  and  _33
REMARK   19  A    between atoms: _36  and  _38
REMARK   20  A    between atoms: _38  and  _39
REMARK   21  A    between atoms: _38  and  _41
REMARK   22  A    between atoms: _41  and  _42
REMARK   23  A    between atoms: _45  and  _47
REMARK   24  A    between atoms: _47  and  _48
REMARK   25  A    between atoms: _47  and  _50
REMARK   26  A    between atoms: _53  and  _55
REMARK   27  A    between atoms: _55  and  _56
REMARK   28  A    between atoms: _58  and  _60
REMARK   29  A    between atoms: _60  and  _61
REMARK   30  A    between atoms: _60  and  _63
REMARK   31  A    between atoms: _64  and  _65
REMARK   32  A    between atoms: _67  and  _69
REMARK   33  A    between atoms: _69  and  _70
REMARK   34  A    between atoms: _69  and  _72
REMARK   35  A    between atoms: _72  and  _73
REMARK   36  A    between atoms: _76  and  _78
REMARK   37  A    between atoms: _78  and  _79
REMARK   38  A    between atoms: _78  and  _81
REMARK   39  A    between atoms: _84  and  _86
REMARK   40  A    between atoms: _86  and  _87
REMARK   41  A    between atoms: _86  and  _89
REMARK   42  A    between atoms: _89  and  _90
REMARK   43  A    between atoms: _93  and  _95
REMARK   44  A    between atoms: _95  and  _96
REMARK   45  A    between atoms: _95  and  _98
REMARK   46  A    between atoms: _98  and  _99
REMARK   47  A    between atoms: _99  and  _100
REMARK   48  A    between atoms: _103  and  _105
REMARK   49  A    between atoms: _105  and  _106
REMARK   50  A    between atoms: _105  and  _108
REMARK   51  A    between atoms: _108  and  _109
REMARK   52  A    between atoms: _112  and  _114
REMARK   53  A    between atoms: _114  and  _115
REMARK   54  A    between atoms: _114  and  _117
REMARK   55  A    between atoms: _120  and  _122
REMARK   56  A    between atoms: _122  and  _123
REMARK   57  A    between atoms: _122  and  _125
REMARK   58  A    between atoms: _128  and  _130
REMARK   59  A    between atoms: _130  and  _131
REMARK   60  A    between atoms: _130  and  _133
REMARK   61  A    between atoms: _134  and  _135
REMARK   62  A    between atoms: _138  and  _140
REMARK   63  A    between atoms: _140  and  _141
REMARK   64  A    between atoms: _140  and  _143
REMARK   65  A    between atoms: _143  and  _144
REMARK   66  A    between atoms: _144  and  _145
REMARK   67  A    between atoms: _150  and  _152
REMARK   68  A    between atoms: _152  and  _153
REMARK   69  A    between atoms: _152  and  _155
REMARK   70  A    between atoms: _155  and  _156
REMARK   71  A    between atoms: _159  and  _161
REMARK   72  A    between atoms: _161  and  _162
REMARK   73  A    between atoms: _161  and  _164
REMARK   74  A    between atoms: _164  and  _165
REMARK   75  A    between atoms: _168  and  _170
REMARK   76  A    between atoms: _170  and  _171
REMARK   77  A    between atoms: _170  and  _173
REMARK   78  A    between atoms: _173  and  _174
REMARK   79  A    between atoms: _174  and  _175
REMARK   80  A    between atoms: _175  and  _176
REMARK   81  A    between atoms: _185  and  _187
REMARK   82  A    between atoms: _187  and  _188
REMARK   83  A    between atoms: _187  and  _190
REMARK   84  A    between atoms: _190  and  _191
REMARK   85  A    between atoms: _194  and  _196
REMARK   86  A    between atoms: _196  and  _197
REMARK   87  A    between atoms: _196  and  _199
REMARK   88  A    between atoms: _199  and  _200
REMARK   89  A    between atoms: _200  and  _201
REMARK   90  A    between atoms: _201  and  _202
REMARK   91  A    between atoms: _211  and  _213
REMARK   92  A    between atoms: _213  and  _214
REMARK   93  A    between atoms: _213  and  _216
REMARK   94  A    between atoms: _216  and  _217
REMARK   95  A    between atoms: _220  and  _222
REMARK   96  A    between atoms: _222  and  _223
REMARK   97  A    between atoms: _225  and  _227
REMARK   98  A    between atoms: _227  and  _228
REMARK   99  A    between atoms: _227  and  _230
REMARK  100  A    between atoms: _230  and  _231
REMARK  101  A    between atoms: _231  and  _232
REMARK  102  A    between atoms: _235  and  _237
REMARK  103  A    between atoms: _237  and  _238
REMARK  104  A    between atoms: _237  and  _240
REMARK  105  A    between atoms: _240  and  _241
REMARK  106  A    between atoms: _244  and  _246
REMARK  107  A    between atoms: _246  and  _247
REMARK  108  A    between atoms: _250  and  _252
REMARK  109  A    between atoms: _252  and  _253
REMARK  110  A    between atoms: _252  and  _255
REMARK  111  A    between atoms: _255  and  _256
REMARK  112  A    between atoms: _261  and  _262
REMARK  113  A    between atoms: _261  and  _264
REMARK  114  A    between atoms: _264  and  _265
REMARK  115  A    between atoms: _267  and  _269
REMARK  116  A    between atoms: _269  and  _270
REMARK  117  A    between atoms: _273  and  _275
REMARK  118  A    between atoms: _275  and  _276
REMARK  119  A    between atoms: _275  and  _278
REMARK  120  A    between atoms: _278  and  _279
REMARK  121  A    between atoms: _282  and  _284
REMARK  122  A    between atoms: _284  and  _285
REMARK  123  A    between atoms: _284  and  _287
REMARK  124  A    between atoms: _287  and  _288
REMARK  125  A    between atoms: _291  and  _293
REMARK  126  A    between atoms: _293  and  _294
REMARK  127  A    between atoms: _293  and  _296
REMARK  128  A    between atoms: _296  and  _297
REMARK  129  A    between atoms: _297  and  _298
REMARK  130  A    between atoms: _298  and  _299
REMARK  131  A    between atoms: _308  and  _310
REMARK  132  A    between atoms: _310  and  _311
REMARK  133  A    between atoms: _310  and  _313
REMARK  134  A    between atoms: _316  and  _318
REMARK  135  A    between atoms: _318  and  _319
REMARK  136  A    between atoms: _318  and  _321
REMARK  137  A    between atoms: _321  and  _322
REMARK  138  A    between atoms: _322  and  _323
REMARK  139  A    between atoms: _323  and  _324
REMARK  140  A    between atoms: _333  and  _335
REMARK  141  A    between atoms: _335  and  _336
REMARK  142  A    between atoms: _338  and  _340
REMARK  143  A    between atoms: _340  and  _341
REMARK  144  A    between atoms: _340  and  _343
REMARK  145  A    between atoms: _343  and  _344
REMARK  146  A    between atoms: _350  and  _352
REMARK  147  A    between atoms: _352  and  _353
REMARK  148  A    between atoms: _353  and  _354
REMARK  149  A    between atoms: _353  and  _355
REMARK  150  A    between atoms: _354  and  MG_637
REMARK  151  A    between atoms: _355  and  _357
REMARK  152  A    between atoms: _357  and  _358
REMARK  153  A    between atoms: _357  and  _360
REMARK  154  A    between atoms: _360  and  _361
REMARK  155  A    between atoms: _361  and  _362
REMARK  156  A    between atoms: _362  and  _363
REMARK  157  A    between atoms: _372  and  _374
REMARK  158  A    between atoms: _374  and  _375
REMARK  159  A    between atoms: _374  and  _377
REMARK  160  A    between atoms: _377  and  _378
REMARK  161  A    between atoms: _378  and  _379
REMARK  162  A    between atoms: _384  and  _386
REMARK  163  A    between atoms: _386  and  _387
REMARK  164  A    between atoms: _386  and  _389
REMARK  165  A    between atoms: _389  and  _390
REMARK  166  A    between atoms: _390  and  _391
REMARK  167  A    between atoms: _391  and  _392
REMARK  168  A    between atoms: _392  and  _393
REMARK  169  A    between atoms: _397  and  _399
REMARK  170  A    between atoms: _399  and  _400
REMARK  171  A    between atoms: _399  and  _402
REMARK  172  A    between atoms: _402  and  _403
REMARK  173  A    between atoms: _403  and  _404
REMARK  174  A    between atoms: _409  and  _411
REMARK  175  A    between atoms: _411  and  _412
REMARK  176  A    between atoms: _411  and  _414
REMARK  177  A    between atoms: _414  and  _415
REMARK  178  A    between atoms: _418  and  _420
REMARK  179  A    between atoms: _420  and  _421
REMARK  180  A    between atoms: _420  and  _423
REMARK  181  A    between atoms: _423  and  _424
REMARK  182  A    between atoms: _424  and  _425
REMARK  183  A    between atoms: _428  and  _430
REMARK  184  A    between atoms: _430  and  _431
REMARK  185  A    between atoms: _430  and  _433
REMARK  186  A    between atoms: _434  and  _435
REMARK  187  A    between atoms: _435  and  _436
REMARK  188  A    between atoms: _445  and  _447
REMARK  189  A    between atoms: _447  and  _448
REMARK  190  A    between atoms: _447  and  _450
REMARK  191  A    between atoms: _450  and  _451
REMARK  192  A    between atoms: _454  and  _456
REMARK  193  A    between atoms: _456  and  _457
REMARK  194  A    between atoms: _456  and  _459
REMARK  195  A    between atoms: _459  and  _460
REMARK  196  A    between atoms: _460  and  _461
REMARK  197  A    between atoms: _464  and  _466
REMARK  198  A    between atoms: _466  and  _467
REMARK  199  A    between atoms: _466  and  _469
REMARK  200  A    between atoms: _469  and  _470
REMARK  201  A    between atoms: _476  and  _478
REMARK  202  A    between atoms: _478  and  _479
REMARK  203  A    between atoms: _478  and  _481
REMARK  204  A    between atoms: _481  and  _482
REMARK  205  A    between atoms: _485  and  _487
REMARK  206  A    between atoms: _487  and  _488
REMARK  207  A    between atoms: _487  and  _490
REMARK  208  A    between atoms: _490  and  _491
REMARK  209  A    between atoms: _491  and  _492
REMARK  210  A    between atoms: _497  and  _499
REMARK  211  A    between atoms: _499  and  _500
REMARK  212  A    between atoms: _499  and  _502
REMARK  213  A    between atoms: _502  and  _503
REMARK  214  A    between atoms: _503  and  _504
REMARK  215  A    between atoms: _504  and  _505
REMARK  216  A    between atoms: _505  and  _506
REMARK  217  A    between atoms: _510  and  _512
REMARK  218  A    between atoms: _512  and  _513
REMARK  219  A    between atoms: _512  and  _515
REMARK  220  A    between atoms: _515  and  _516
REMARK  221  A    between atoms: _519  and  _521
REMARK  222  A    between atoms: _521  and  _522
REMARK  223  A    between atoms: _521  and  _524
REMARK  224  A    between atoms: _524  and  _525
REMARK  225  A    between atoms: _525  and  _526
REMARK  226  A    between atoms: _526  and  _527
REMARK  227  A    between atoms: _527  and  _528
REMARK  228  A    between atoms: _532  and  _534
REMARK  229  A    between atoms: _534  and  _535
REMARK  230  A    between atoms: _534  and  _537
REMARK  231  A    between atoms: _537  and  _538
REMARK  232  A    between atoms: _538  and  _539
REMARK  233  A    between atoms: _539  and  _540
REMARK  234  A    between atoms: _549  and  _551
REMARK  235  A    between atoms: _551  and  _552
REMARK  236  A    between atoms: _551  and  _554
REMARK  237  A    between atoms: _554  and  _555
REMARK  238  A    between atoms: _558  and  _560
REMARK  239  A    between atoms: _560  and  _561
REMARK  240  A    between atoms: _563  and  _565
REMARK  241  A    between atoms: _565  and  _566
REMARK  242  A    between atoms: _565  and  _568
REMARK  243  A    between atoms: _568  and  _569
REMARK  244  A    between atoms: _569  and  _570
REMARK  245  A    between atoms: _573  and  _575
REMARK  246  A    between atoms: _575  and  _576
REMARK  247  A    between atoms: _575  and  _578
REMARK  248  A    between atoms: _578  and  _579
REMARK  249  A    between atoms: _584  and  _586
REMARK  250  A    between atoms: _586  and  _587
REMARK  251  A    between atoms: _589  and  _591
REMARK  252  A    between atoms: _591  and  _592
REMARK  253  A    between atoms: _591  and  _594
REMARK  254  A    between atoms: _594  and  _595
REMARK  255  A    between atoms: _598  and  _600
REMARK  256  A    between atoms: _600  and  _601
REMARK  257  A    between atoms: _603  and  _605
REMARK  258  A    between atoms: _605  and  _606
REMARK  259  A    between atoms: _605  and  _608
REMARK  260  A    between atoms: _608  and  _609
REMARK  261  A    between atoms: _609  and  _610
REMARK  262  A    between atoms: _610  and  _611
REMARK  263  A    between atoms: _611  and  _612
REMARK  264  A    between atoms: _616  and  _618
REMARK  265  A    between atoms: _618  and  _619
REMARK  266  A    between atoms: _618  and  _621
REMARK  267  A    between atoms: _621  and  _622
REMARK  268  A    between atoms: _625  and  _627
REMARK  269  A    between atoms: _627  and  _628
REMARK  270  A    between atoms: _627  and  _630
REMARK  271  A    between atoms: _630  and  _631
REMARK                            x       y       z     vdW  Elec       q    Type
REMARK                         _______ _______ _______ _____ _____    ______ ____
ROOT
ATOM      1  O   HOH     1      53.821 -16.057  55.206  0.00  0.00    +0.000 OA
ENDROOT
TORSDOF 0
REMARK  Name = ../refined-set-2016/2xbp/2xbp_pocket.pdb
REMARK  271 active torsions:
REMARK  status: ('A' for Active; 'I' for Inactive)
REMARK    1  A    between atoms: _1  and  _3
REMARK    2  A    between atoms: _3  and  _4
REMARK    3  A    between atoms: _3  and  _6
REMARK    4  A    between atoms: _6  and  _7
REMARK    5  A    between atoms: _7  and  _8
REMARK    6  A    between atoms: _8  and  _9
REMARK    7  A    between atoms: _9  and  _10
REMARK    8  A    between atoms: _14  and  _16
REMARK    9  A    between atoms: _16  and  _17
REMARK   10  A    between atoms: _16  and  _19
REMARK   11  A    between atoms: _19  and  _20
REMARK   12  A    between atoms: _20  and  _21
REMARK   13  A    between atoms: _21  and  _22
REMARK   14  A    between atoms: _22  and  _23
REMARK   15  A    between atoms: _27  and  _29
REMARK   16  A    between atoms: _29  and  _30
REMARK   17  A    between atoms: _29  and  _32
REMARK   18  A    between atoms: _32  and  _33
REMARK   19  A    between atoms: _36  and  _38
REMARK   20  A    between atoms: _38  and  _39
REMARK   21  A    between atoms: _38  and  _41
REMARK   22  A    between atoms: _41  and  _42
REMARK   23  A    between atoms: _45  and  _47
REMARK   24  A    between atoms: _47  and  _48
REMARK   25  A    between atoms: _47  and  _50
REMARK   26  A    between atoms: _53  and  _55
REMARK   27  A    between atoms: _55  and  _56
REMARK   28  A    between atoms: _58  and  _60
REMARK   29  A    between atoms: _60  and  _61
REMARK   30  A    between atoms: _60  and  _63
REMARK   31  A    between atoms: _64  and  _65
REMARK   32  A    between atoms: _67  and  _69
REMARK   33  A    between atoms: _69  and  _70
REMARK   34  A    between atoms: _69  and  _72
REMARK   35  A    between atoms: _72  and  _73
REMARK   36  A    between atoms: _76  and  _78
REMARK   37  A    between atoms: _78  and  _79
REMARK   38  A    between atoms: _78  and  _81
REMARK   39  A    between atoms: _84  and  _86
REMARK   40  A    between atoms: _86  and  _87
REMARK   41  A    between atoms: _86  and  _89
REMARK   42  A    between atoms: _89  and  _90
REMARK   43  A    between atoms: _93  and  _95
REMARK   44  A    between atoms: _95  and  _96
REMARK   45  A    between atoms: _95  and  _98
REMARK   46  A    between atoms: _98  and  _99
REMARK   47  A    between atoms: _99  and  _100
REMARK   48  A    between atoms: _103  and  _105
REMARK   49  A    between atoms: _105  and  _106
REMARK   50  A    between atoms: _105  and  _108
REMARK   51  A    between atoms: _108  and  _109
REMARK   52  A    between atoms: _112  and  _114
REMARK   53  A    between atoms: _114  and  _115
REMARK   54  A    between atoms: _114  and  _117
REMARK   55  A    between atoms: _120  and  _122
REMARK   56  A    between atoms: _122  and  _123
REMARK   57  A    between atoms: _122  and  _125
REMARK   58  A    between atoms: _128  and  _130
REMARK   59  A    between atoms: _130  and  _131
REMARK   60  A    between atoms: _130  and  _133
REMARK   61  A    between atoms: _134  and  _135
REMARK   62  A    between atoms: _138  and  _140
REMARK   63  A    between atoms: _140  and  _141
REMARK   64  A    between atoms: _140  and  _143
REMARK   65  A    between atoms: _143  and  _144
REMARK   66  A    between atoms: _144  and  _145
REMARK   67  A    between atoms: _150  and  _152
REMARK   68  A    between atoms: _152  and  _153
REMARK   69  A    between atoms: _152  and  _155
REMARK   70  A    between atoms: _155  and  _156
REMARK   71  A    between atoms: _159  and  _161
REMARK   72  A    between atoms: _161  and  _162
REMARK   73  A    between atoms: _161  and  _164
REMARK   74  A    between atoms: _164  and  _165
REMARK   75  A    between atoms: _168  and  _170
REMARK   76  A    between atoms: _170  and  _171
REMARK   77  A    between atoms: _170  and  _173
REMARK   78  A    between atoms: _173  and  _174
REMARK   79  A    between atoms: _174  and  _175
REMARK   80  A    between atoms: _175  and  _176
REMARK   81  A    between atoms: _185  and  _187
REMARK   82  A    between atoms: _187  and  _188
REMARK   83  A    between atoms: _187  and  _190
REMARK   84  A    between atoms: _190  and  _191
REMARK   85  A    between atoms: _194  and  _196
REMARK   86  A    between atoms: _196  and  _197
REMARK   87  A    between atoms: _196  and  _199
REMARK   88  A    between atoms: _199  and  _200
REMARK   89  A    between atoms: _200  and  _201
REMARK   90  A    between atoms: _201  and  _202
REMARK   91  A    between atoms: _211  and  _213
REMARK   92  A    between atoms: _213  and  _214
REMARK   93  A    between atoms: _213  and  _216
REMARK   94  A    between atoms: _216  and  _217
REMARK   95  A    between atoms: _220  and  _222
REMARK   96  A    between atoms: _222  and  _223
REMARK   97  A    between atoms: _225  and  _227
REMARK   98  A    between atoms: _227  and  _228
REMARK   99  A    between atoms: _227  and  _230
REMARK  100  A    between atoms: _230  and  _231
REMARK  101  A    between atoms: _231  and  _232
REMARK  102  A    between atoms: _235  and  _237
REMARK  103  A    between atoms: _237  and  _238
REMARK  104  A    between atoms: _237  and  _240
REMARK  105  A    between atoms: _240  and  _241
REMARK  106  A    between atoms: _244  and  _246
REMARK  107  A    between atoms: _246  and  _247
REMARK  108  A    between atoms: _250  and  _252
REMARK  109  A    between atoms: _252  and  _253
REMARK  110  A    between atoms: _252  and  _255
REMARK  111  A    between atoms: _255  and  _256
REMARK  112  A    between atoms: _261  and  _262
REMARK  113  A    between atoms: _261  and  _264
REMARK  114  A    between atoms: _264  and  _265
REMARK  115  A    between atoms: _267  and  _269
REMARK  116  A    between atoms: _269  and  _270
REMARK  117  A    between atoms: _273  and  _275
REMARK  118  A    between atoms: _275  and  _276
REMARK  119  A    between atoms: _275  and  _278
REMARK  120  A    between atoms: _278  and  _279
REMARK  121  A    between atoms: _282  and  _284
REMARK  122  A    between atoms: _284  and  _285
REMARK  123  A    between atoms: _284  and  _287
REMARK  124  A    between atoms: _287  and  _288
REMARK  125  A    between atoms: _291  and  _293
REMARK  126  A    between atoms: _293  and  _294
REMARK  127  A    between atoms: _293  and  _296
REMARK  128  A    between atoms: _296  and  _297
REMARK  129  A    between atoms: _297  and  _298
REMARK  130  A    between atoms: _298  and  _299
REMARK  131  A    between atoms: _308  and  _310
REMARK  132  A    between atoms: _310  and  _311
REMARK  133  A    between atoms: _310  and  _313
REMARK  134  A    between atoms: _316  and  _318
REMARK  135  A    between atoms: _318  and  _319
REMARK  136  A    between atoms: _318  and  _321
REMARK  137  A    between atoms: _321  and  _322
REMARK  138  A    between atoms: _322  and  _323
REMARK  139  A    between atoms: _323  and  _324
REMARK  140  A    between atoms: _333  and  _335
REMARK  141  A    between atoms: _335  and  _336
REMARK  142  A    between atoms: _338  and  _340
REMARK  143  A    between atoms: _340  and  _341
REMARK  144  A    between atoms: _340  and  _343
REMARK  145  A    between atoms: _343  and  _344
REMARK  146  A    between atoms: _350  and  _352
REMARK  147  A    between atoms: _352  and  _353
REMARK  148  A    between atoms: _353  and  _354
REMARK  149  A    between atoms: _353  and  _355
REMARK  150  A    between atoms: _354  and  MG_637
REMARK  151  A    between atoms: _355  and  _357
REMARK  152  A    between atoms: _357  and  _358
REMARK  153  A    between atoms: _357  and  _360
REMARK  154  A    between atoms: _360  and  _361
REMARK  155  A    between atoms: _361  and  _362
REMARK  156  A    between atoms: _362  and  _363
REMARK  157  A    between atoms: _372  and  _374
REMARK  158  A    between atoms: _374  and  _375
REMARK  159  A    between atoms: _374  and  _377
REMARK  160  A    between atoms: _377  and  _378
REMARK  161  A    between atoms: _378  and  _379
REMARK  162  A    between atoms: _384  and  _386
REMARK  163  A    between atoms: _386  and  _387
REMARK  164  A    between atoms: _386  and  _389
REMARK  165  A    between atoms: _389  and  _390
REMARK  166  A    between atoms: _390  and  _391
REMARK  167  A    between atoms: _391  and  _392
REMARK  168  A    between atoms: _392  and  _393
REMARK  169  A    between atoms: _397  and  _399
REMARK  170  A    between atoms: _399  and  _400
REMARK  171  A    between atoms: _399  and  _402
REMARK  172  A    between atoms: _402  and  _403
REMARK  173  A    between atoms: _403  and  _404
REMARK  174  A    between atoms: _409  and  _411
REMARK  175  A    between atoms: _411  and  _412
REMARK  176  A    between atoms: _411  and  _414
REMARK  177  A    between atoms: _414  and  _415
REMARK  178  A    between atoms: _418  and  _420
REMARK  179  A    between atoms: _420  and  _421
REMARK  180  A    between atoms: _420  and  _423
REMARK  181  A    between atoms: _423  and  _424
REMARK  182  A    between atoms: _424  and  _425
REMARK  183  A    between atoms: _428  and  _430
REMARK  184  A    between atoms: _430  and  _431
REMARK  185  A    between atoms: _430  and  _433
REMARK  186  A    between atoms: _434  and  _435
REMARK  187  A    between atoms: _435  and  _436
REMARK  188  A    between atoms: _445  and  _447
REMARK  189  A    between atoms: _447  and  _448
REMARK  190  A    between atoms: _447  and  _450
REMARK  191  A    between atoms: _450  and  _451
REMARK  192  A    between atoms: _454  and  _456
REMARK  193  A    between atoms: _456  and  _457
REMARK  194  A    between atoms: _456  and  _459
REMARK  195  A    between atoms: _459  and  _460
REMARK  196  A    between atoms: _460  and  _461
REMARK  197  A    between atoms: _464  and  _466
REMARK  198  A    between atoms: _466  and  _467
REMARK  199  A    between atoms: _466  and  _469
REMARK  200  A    between atoms: _469  and  _470
REMARK  201  A    between atoms: _476  and  _478
REMARK  202  A    between atoms: _478  and  _479
REMARK  203  A    between atoms: _478  and  _481
REMARK  204  A    between atoms: _481  and  _482
REMARK  205  A    between atoms: _485  and  _487
REMARK  206  A    between atoms: _487  and  _488
REMARK  207  A    between atoms: _487  and  _490
REMARK  208  A    between atoms: _490  and  _491
REMARK  209  A    between atoms: _491  and  _492
REMARK  210  A    between atoms: _497  and  _499
REMARK  211  A    between atoms: _499  and  _500
REMARK  212  A    between atoms: _499  and  _502
REMARK  213  A    between atoms: _502  and  _503
REMARK  214  A    between atoms: _503  and  _504
REMARK  215  A    between atoms: _504  and  _505
REMARK  216  A    between atoms: _505  and  _506
REMARK  217  A    between atoms: _510  and  _512
REMARK  218  A    between atoms: _512  and  _513
REMARK  219  A    between atoms: _512  and  _515
REMARK  220  A    between atoms: _515  and  _516
REMARK  221  A    between atoms: _519  and  _521
REMARK  222  A    between atoms: _521  and  _522
REMARK  223  A    between atoms: _521  and  _524
REMARK  224  A    between atoms: _524  and  _525
REMARK  225  A    between atoms: _525  and  _526
REMARK  226  A    between atoms: _526  and  _527
REMARK  227  A    between atoms: _527  and  _528
REMARK  228  A    between atoms: _532  and  _534
REMARK  229  A    between atoms: _534  and  _535
REMARK  230  A    between atoms: _534  and  _537
REMARK  231  A    between atoms: _537  and  _538
REMARK  232  A    between atoms: _538  and  _539
REMARK  233  A    between atoms: _539  and  _540
REMARK  234  A    between atoms: _549  and  _551
REMARK  235  A    between atoms: _551  and  _552
REMARK  236  A    between atoms: _551  and  _554
REMARK  237  A    between atoms: _554  and  _555
REMARK  238  A    between atoms: _558  and  _560
REMARK  239  A    between atoms: _560  and  _561
REMARK  240  A    between atoms: _563  and  _565
REMARK  241  A    between atoms: _565  and  _566
REMARK  242  A    between atoms: _565  and  _568
REMARK  243  A    between atoms: _568  and  _569
REMARK  244  A    between atoms: _569  and  _570
REMARK  245  A    between atoms: _573  and  _575
REMARK  246  A    between atoms: _575  and  _576
REMARK  247  A    between atoms: _575  and  _578
REMARK  248  A    between atoms: _578  and  _579
REMARK  249  A    between atoms: _584  and  _586
REMARK  250  A    between atoms: _586  and  _587
REMARK  251  A    between atoms: _589  and  _591
REMARK  252  A    between atoms: _591  and  _592
REMARK  253  A    between atoms: _591  and  _594
REMARK  254  A    between atoms: _594  and  _595
REMARK  255  A    between atoms: _598  and  _600
REMARK  256  A    between atoms: _600  and  _601
REMARK  257  A    between atoms: _603  and  _605
REMARK  258  A    between atoms: _605  and  _606
REMARK  259  A    between atoms: _605  and  _608
REMARK  260  A    between atoms: _608  and  _609
REMARK  261  A    between atoms: _609  and  _610
REMARK  262  A    between atoms: _610  and  _611
REMARK  263  A    between atoms: _611  and  _612
REMARK  264  A    between atoms: _616  and  _618
REMARK  265  A    between atoms: _618  and  _619
REMARK  266  A    between atoms: _618  and  _621
REMARK  267  A    between atoms: _621  and  _622
REMARK  268  A    between atoms: _625  and  _627
REMARK  269  A    between atoms: _627  and  _628
REMARK  270  A    between atoms: _627  and  _630
REMARK  271  A    between atoms: _630  and  _631
REMARK                            x       y       z     vdW  Elec       q    Type
REMARK                         _______ _______ _______ _____ _____    ______ ____
ROOT
ATOM      1  O   HOH     1      45.722 -19.271  48.858  0.00  0.00    +0.000 OA
ENDROOT
TORSDOF 0
