REMARK  Name = ../refined-set-2016/4app/4app_pocket.pdb
REMARK  233 active torsions:
REMARK  status: ('A' for Active; 'I' for Inactive)
REMARK    1  A    between atoms: _1  and  _3
REMARK    2  A    between atoms: _3  and  _4
REMARK    3  A    between atoms: _3  and  _6
REMARK    4  A    between atoms: _6  and  _7
REMARK    5  A    between atoms: _10  and  _12
REMARK    6  A    between atoms: _12  and  _13
REMARK    7  A    between atoms: _15  and  _17
REMARK    8  A    between atoms: _17  and  _18
REMARK    9  A    between atoms: _17  and  _20
REMARK   10  A    between atoms: _20  and  _21
REMARK   11  A    between atoms: _21  and  _22
REMARK   12  A    between atoms: _25  and  _27
REMARK   13  A    between atoms: _27  and  _28
REMARK   14  A    between atoms: _30  and  _32
REMARK   15  A    between atoms: _32  and  _33
REMARK   16  A    between atoms: _32  and  _35
REMARK   17  A    between atoms: _35  and  _36
REMARK   18  A    between atoms: _38  and  _40
REMARK   19  A    between atoms: _40  and  _41
REMARK   20  A    between atoms: _40  and  _43
REMARK   21  A    between atoms: _43  and  _44
REMARK   22  A    between atoms: _47  and  _49
REMARK   23  A    between atoms: _49  and  _50
REMARK   24  A    between atoms: _52  and  _54
REMARK   25  A    between atoms: _54  and  _55
REMARK   26  A    between atoms: _54  and  _57
REMARK   27  A    between atoms: _57  and  _58
REMARK   28  A    between atoms: _61  and  _63
REMARK   29  A    between atoms: _63  and  _64
REMARK   30  A    between atoms: _63  and  _66
REMARK   31  A    between atoms: _69  and  _71
REMARK   32  A    between atoms: _71  and  _72
REMARK   33  A    between atoms: _71  and  _74
REMARK   34  A    between atoms: _76  and  _78
REMARK   35  A    between atoms: _78  and  _79
REMARK   36  A    between atoms: _78  and  _81
REMARK   37  A    between atoms: _81  and  _82
REMARK   38  A    between atoms: _85  and  _87
REMARK   39  A    between atoms: _87  and  _88
REMARK   40  A    between atoms: _87  and  _90
REMARK   41  A    between atoms: _90  and  _91
REMARK   42  A    between atoms: _94  and  _96
REMARK   43  A    between atoms: _96  and  _97
REMARK   44  A    between atoms: _96  and  _99
REMARK   45  A    between atoms: _102  and  _104
REMARK   46  A    between atoms: _104  and  _105
REMARK   47  A    between atoms: _108  and  _110
REMARK   48  A    between atoms: _110  and  _111
REMARK   49  A    between atoms: _110  and  _113
REMARK   50  A    between atoms: _116  and  _118
REMARK   51  A    between atoms: _118  and  _119
REMARK   52  A    between atoms: _118  and  _121
REMARK   53  A    between atoms: _121  and  _122
REMARK   54  A    between atoms: _122  and  _123
REMARK   55  A    between atoms: _123  and  _124
REMARK   56  A    between atoms: _124  and  _125
REMARK   57  A    between atoms: _129  and  _131
REMARK   58  A    between atoms: _131  and  _132
REMARK   59  A    between atoms: _131  and  _134
REMARK   60  A    between atoms: _134  and  _135
REMARK   61  A    between atoms: _135  and  _136
REMARK   62  A    between atoms: _136  and  _137
REMARK   63  A    between atoms: _137  and  _138
REMARK   64  A    between atoms: _142  and  _144
REMARK   65  A    between atoms: _144  and  _145
REMARK   66  A    between atoms: _144  and  _147
REMARK   67  A    between atoms: _147  and  _148
REMARK   68  A    between atoms: _148  and  _149
REMARK   69  A    between atoms: _151  and  _153
REMARK   70  A    between atoms: _153  and  _154
REMARK   71  A    between atoms: _153  and  _156
REMARK   72  A    between atoms: _156  and  _157
REMARK   73  A    between atoms: _160  and  _162
REMARK   74  A    between atoms: _162  and  _163
REMARK   75  A    between atoms: _162  and  _165
REMARK   76  A    between atoms: _165  and  _166
REMARK   77  A    between atoms: _166  and  _167
REMARK   78  A    between atoms: _172  and  _174
REMARK   79  A    between atoms: _174  and  _175
REMARK   80  A    between atoms: _174  and  _177
REMARK   81  A    between atoms: _177  and  _178
REMARK   82  A    between atoms: _178  and  _179
REMARK   83  A    between atoms: _182  and  _184
REMARK   84  A    between atoms: _184  and  _185
REMARK   85  A    between atoms: _184  and  _187
REMARK   86  A    between atoms: _190  and  _192
REMARK   87  A    between atoms: _192  and  _193
REMARK   88  A    between atoms: _192  and  _195
REMARK   89  A    between atoms: _195  and  _196
REMARK   90  A    between atoms: _196  and  _197
REMARK   91  A    between atoms: _200  and  _202
REMARK   92  A    between atoms: _202  and  _203
REMARK   93  A    between atoms: _202  and  _205
REMARK   94  A    between atoms: _205  and  _206
REMARK   95  A    between atoms: _206  and  _207
REMARK   96  A    between atoms: _209  and  _211
REMARK   97  A    between atoms: _211  and  _212
REMARK   98  A    between atoms: _211  and  _214
REMARK   99  A    between atoms: _214  and  _215
REMARK  100  A    between atoms: _218  and  _220
REMARK  101  A    between atoms: _220  and  _221
REMARK  102  A    between atoms: _220  and  _223
REMARK  103  A    between atoms: _226  and  _228
REMARK  104  A    between atoms: _228  and  _229
REMARK  105  A    between atoms: _228  and  _231
REMARK  106  A    between atoms: _234  and  _236
REMARK  107  A    between atoms: _236  and  _237
REMARK  108  A    between atoms: _236  and  _239
REMARK  109  A    between atoms: _239  and  _240
REMARK  110  A    between atoms: _240  and  _241
REMARK  111  A    between atoms: _243  and  _245
REMARK  112  A    between atoms: _245  and  _246
REMARK  113  A    between atoms: _245  and  _248
REMARK  114  A    between atoms: _248  and  _249
REMARK  115  A    between atoms: _249  and  _250
REMARK  116  A    between atoms: _253  and  _255
REMARK  117  A    between atoms: _255  and  _256
REMARK  118  A    between atoms: _255  and  _258
REMARK  119  A    between atoms: _258  and  _259
REMARK  120  A    between atoms: _265  and  _267
REMARK  121  A    between atoms: _267  and  _268
REMARK  122  A    between atoms: _267  and  _270
REMARK  123  A    between atoms: _270  and  _271
REMARK  124  A    between atoms: _274  and  _276
REMARK  125  A    between atoms: _276  and  _277
REMARK  126  A    between atoms: _276  and  _279
REMARK  127  A    between atoms: _279  and  _280
REMARK  128  A    between atoms: _280  and  _281
REMARK  129  A    between atoms: _284  and  _286
REMARK  130  A    between atoms: _286  and  _287
REMARK  131  A    between atoms: _289  and  _291
REMARK  132  A    between atoms: _291  and  _292
REMARK  133  A    between atoms: _294  and  _296
REMARK  134  A    between atoms: _296  and  _297
REMARK  135  A    between atoms: _300  and  _302
REMARK  136  A    between atoms: _302  and  _303
REMARK  137  A    between atoms: _302  and  _305
REMARK  138  A    between atoms: _305  and  _306
REMARK  139  A    between atoms: _309  and  _311
REMARK  140  A    between atoms: _311  and  _312
REMARK  141  A    between atoms: _311  and  _314
REMARK  142  A    between atoms: _314  and  _315
REMARK  143  A    between atoms: _318  and  _320
REMARK  144  A    between atoms: _320  and  _321
REMARK  145  A    between atoms: _320  and  _323
REMARK  146  A    between atoms: _323  and  _324
REMARK  147  A    between atoms: _327  and  _329
REMARK  148  A    between atoms: _329  and  _330
REMARK  149  A    between atoms: _329  and  _332
REMARK  150  A    between atoms: _332  and  _333
REMARK  151  A    between atoms: _336  and  _338
REMARK  152  A    between atoms: _338  and  _339
REMARK  153  A    between atoms: _338  and  _341
REMARK  154  A    between atoms: _341  and  _342
REMARK  155  A    between atoms: _345  and  _347
REMARK  156  A    between atoms: _347  and  _348
REMARK  157  A    between atoms: _347  and  _350
REMARK  158  A    between atoms: _350  and  _351
REMARK  159  A    between atoms: _356  and  _358
REMARK  160  A    between atoms: _358  and  _359
REMARK  161  A    between atoms: _358  and  _361
REMARK  162  A    between atoms: _361  and  _362
REMARK  163  A    between atoms: _365  and  _367
REMARK  164  A    between atoms: _367  and  _368
REMARK  165  A    between atoms: _367  and  _370
REMARK  166  A    between atoms: _370  and  _371
REMARK  167  A    between atoms: _371  and  _372
REMARK  168  A    between atoms: _372  and  _373
REMARK  169  A    between atoms: _373  and  _374
REMARK  170  A    between atoms: _378  and  _380
REMARK  171  A    between atoms: _380  and  _381
REMARK  172  A    between atoms: _380  and  _383
REMARK  173  A    between atoms: _383  and  _384
REMARK  174  A    between atoms: _386  and  _388
REMARK  175  A    between atoms: _388  and  _389
REMARK  176  A    between atoms: _388  and  _391
REMARK  177  A    between atoms: _391  and  _392
REMARK  178  A    between atoms: _395  and  _397
REMARK  179  A    between atoms: _397  and  _398
REMARK  180  A    between atoms: _397  and  _400
REMARK  181  A    between atoms: _400  and  _401
REMARK  182  A    between atoms: _403  and  _405
REMARK  183  A    between atoms: _405  and  _406
REMARK  184  A    between atoms: _405  and  _408
REMARK  185  A    between atoms: _408  and  _409
REMARK  186  A    between atoms: _412  and  _414
REMARK  187  A    between atoms: _414  and  _415
REMARK  188  A    between atoms: _414  and  _417
REMARK  189  A    between atoms: _417  and  _418
REMARK  190  A    between atoms: _421  and  _423
REMARK  191  A    between atoms: _423  and  _424
REMARK  192  A    between atoms: _423  and  _426
REMARK  193  A    between atoms: _426  and  _427
REMARK  194  A    between atoms: _430  and  _432
REMARK  195  A    between atoms: _432  and  _433
REMARK  196  A    between atoms: _432  and  _435
REMARK  197  A    between atoms: _435  and  _436
REMARK  198  A    between atoms: _439  and  _441
REMARK  199  A    between atoms: _441  and  _442
REMARK  200  A    between atoms: _441  and  _444
REMARK  201  A    between atoms: _444  and  _445
REMARK  202  A    between atoms: _447  and  _449
REMARK  203  A    between atoms: _449  and  _450
REMARK  204  A    between atoms: _449  and  _452
REMARK  205  A    between atoms: _452  and  _453
REMARK  206  A    between atoms: _456  and  _458
REMARK  207  A    between atoms: _458  and  _459
REMARK  208  A    between atoms: _458  and  _461
REMARK  209  A    between atoms: _461  and  _462
REMARK  210  A    between atoms: _468  and  _470
REMARK  211  A    between atoms: _470  and  _471
REMARK  212  A    between atoms: _473  and  _475
REMARK  213  A    between atoms: _475  and  _476
REMARK  214  A    between atoms: _475  and  _478
REMARK  215  A    between atoms: _478  and  _479
REMARK  216  A    between atoms: _479  and  _480
REMARK  217  A    between atoms: _482  and  _484
REMARK  218  A    between atoms: _484  and  _485
REMARK  219  A    between atoms: _484  and  _487
REMARK  220  A    between atoms: _487  and  _488
REMARK  221  A    between atoms: _488  and  _489
REMARK  222  A    between atoms: _489  and  _490
REMARK  223  A    between atoms: _499  and  _501
REMARK  224  A    between atoms: _501  and  _502
REMARK  225  A    between atoms: _501  and  _504
REMARK  226  A    between atoms: _504  and  _505
REMARK  227  A    between atoms: _505  and  _506
REMARK  228  A    between atoms: _511  and  _513
REMARK  229  A    between atoms: _513  and  _514
REMARK  230  A    between atoms: _513  and  _516
REMARK  231  A    between atoms: _516  and  _517
REMARK  232  A    between atoms: _517  and  _518
REMARK  233  A    between atoms: _518  and  _519
REMARK                            x       y       z     vdW  Elec       q    Type
REMARK                         _______ _______ _______ _____ _____    ______ ____
ROOT
ATOM      1  CA  THR A   6      51.715  27.453   9.987  0.00  0.00    +0.176 C 
ENDROOT
BRANCH   1   2
ATOM      2  C   THR A   6      52.680  27.125  11.131  0.00  0.00    +0.243 C 
ATOM      3  N   GLY A   7      52.527  25.941  11.714  0.00  0.00    -0.295 N 
ATOM      4  H   GLY A   7      51.781  25.295  11.386  0.00  0.00    +0.150 HD
ATOM      5  O   THR A   6      53.552  27.926  11.473  0.00  0.00    -0.273 OA
BRANCH   3   6
ATOM      6  CA  GLY A   7      53.395  25.544  12.806  0.00  0.00    +0.176 C 
BRANCH   6   7
ATOM      7  C   GLY A   7      53.064  24.154  13.311  0.00  0.00    +0.243 C 
ATOM      8  N   ILE A   8      53.432  23.874  14.556  0.00  0.00    -0.297 N 
ATOM      9  H   ILE A   8      53.920  24.599  15.119  0.00  0.00    +0.150 HD
ATOM     10  O   GLY A   7      52.478  23.346  12.588  0.00  0.00    -0.273 OA
BRANCH   8  11
ATOM     11  CA  ILE A   8      53.165  22.570  15.147  0.00  0.00    +0.149 C 
BRANCH  11  12
ATOM     12  C   ILE A   8      52.476  22.678  16.508  0.00  0.00    +0.241 C 
ATOM     13  O   ILE A   8      52.458  23.744  17.132  0.00  0.00    -0.273 OA
ATOM     14  N   VAL A   9      51.897  21.567  16.952  0.00  0.00    -0.297 N 
ATOM     15  H   VAL A   9      51.928  20.711  16.362  0.00  0.00    +0.150 HD
BRANCH  14  16
ATOM     16  CA  VAL A   9      51.221  21.514  18.239  0.00  0.00    +0.149 C 
BRANCH  16  17
ATOM     17  C   VAL A   9      51.900  20.442  19.069  0.00  0.00    +0.241 C 
ATOM     18  N   CYS A  10      52.133  20.743  20.335  0.00  0.00    -0.296 N 
ATOM     19  H   CYS A  10      51.853  21.675  20.701  0.00  0.00    +0.150 HD
ATOM     20  O   VAL A   9      52.203  19.360  18.573  0.00  0.00    -0.273 OA
BRANCH  18  21
ATOM     21  CA  CYS A  10      52.774  19.790  21.218  0.00  0.00    +0.160 C 
BRANCH  21  22
ATOM     22  C   CYS A  10      51.997  19.752  22.522  0.00  0.00    +0.242 C 
ATOM     23  N   ILE A  11      52.297  18.754  23.342  0.00  0.00    -0.298 N 
ATOM     24  H   ILE A  11      52.987  18.037  23.039  0.00  0.00    +0.150 HD
ATOM     25  O   CYS A  10      51.125  20.593  22.768  0.00  0.00    -0.273 OA
BRANCH  23  26
ATOM     26  CA  ILE A  11      51.687  18.640  24.648  0.00  0.00    +0.137 C 
BRANCH  26  27
ATOM     27  C   ILE A  11      52.883  18.795  25.577  0.00  0.00    +0.227 C 
ATOM     28  O   ILE A  11      53.990  18.376  25.240  0.00  0.00    -0.286 OA
ENDBRANCH  26  27
BRANCH  26  29
ATOM     29  CB  ILE A  11      50.952  17.258  24.845  0.00  0.00    +0.026 C 
ATOM     30  CG2 ILE A  11      49.736  17.269  23.937  0.00  0.00    +0.002 C 
BRANCH  29  31
ATOM     31  CG1 ILE A  11      51.839  16.041  24.544  0.00  0.00    +0.002 C 
ATOM     32  CD1 ILE A  11      51.140  14.709  24.770  0.00  0.00    +0.000 C 
ENDBRANCH  29  31
ENDBRANCH  26  29
ENDBRANCH  23  26
ENDBRANCH  21  22
BRANCH  21  33
ATOM     33  CB  CYS A  10      54.245  20.223  21.512  0.00  0.00    +0.098 C 
ATOM     34  SG  CYS A  10      55.400  20.687  20.185  0.00  0.00    -0.080 S 
ENDBRANCH  21  33
ENDBRANCH  18  21
ENDBRANCH  16  17
BRANCH  16  35
ATOM     35  CB  VAL A   9      49.778  21.060  18.136  0.00  0.00    +0.027 C 
ATOM     36  CG2 VAL A   9      49.166  21.291  19.506  0.00  0.00    +0.002 C 
ATOM     37  CG1 VAL A   9      49.003  21.777  17.081  0.00  0.00    +0.002 C 
ENDBRANCH  16  35
ENDBRANCH  14  16
ENDBRANCH  11  12
BRANCH  11  38
ATOM     38  CB  ILE A   8      54.499  21.727  15.322  0.00  0.00    +0.027 C 
ATOM     39  CG2 ILE A   8      55.144  21.616  13.946  0.00  0.00    +0.002 C 
BRANCH  38  40
ATOM     40  CG1 ILE A   8      55.500  22.354  16.307  0.00  0.00    +0.002 C 
ATOM     41  CD1 ILE A   8      56.690  21.459  16.619  0.00  0.00    +0.000 C 
ENDBRANCH  38  40
ENDBRANCH  11  38
ENDBRANCH   8  11
ENDBRANCH   6   7
ENDBRANCH   3   6
ENDBRANCH   1   2
BRANCH   1  43
ATOM     42  C   SER A   5      49.694  26.648   8.964  0.00  0.00    +0.243 C 
ATOM     43  N   THR A   6      50.427  26.776  10.065  0.00  0.00    -0.295 N 
ATOM     44  H   THR A   6      50.085  26.398  10.971  0.00  0.00    +0.150 HD
ATOM     45  O   SER A   5      50.082  27.057   7.868  0.00  0.00    -0.273 OA
BRANCH  42  46
ATOM     46  CA  SER A   5      48.335  25.956   9.087  0.00  0.00    +0.178 C 
BRANCH  46  48
ATOM     47  C   GLY A   4      48.947  24.146  10.616  0.00  0.00    +0.243 C 
ATOM     48  N   SER A   5      48.151  25.158  10.289  0.00  0.00    -0.295 N 
ATOM     49  H   SER A   5      47.359  25.391  10.922  0.00  0.00    +0.150 HD
ATOM     50  O   GLY A   4      49.926  23.804   9.947  0.00  0.00    -0.273 OA
BRANCH  47  51
ATOM     51  CA  GLY A   4      48.573  23.426  11.895  0.00  0.00    +0.176 C 
BRANCH  51  54
ATOM     52  C   GLU A   3      49.389  21.339  12.786  0.00  0.00    +0.241 C 
ATOM     53  O   GLU A   3      48.291  20.796  12.644  0.00  0.00    -0.273 OA
ATOM     54  N   GLY A   4      49.626  22.604  12.454  0.00  0.00    -0.295 N 
ATOM     55  H   GLY A   4      50.574  23.006  12.597  0.00  0.00    +0.150 HD
BRANCH  52  56
ATOM     56  CA  GLU A   3      50.568  20.578  13.378  0.00  0.00    +0.149 C 
BRANCH  56  59
ATOM     57  C   GLY A   2      50.966  18.617  14.754  0.00  0.00    +0.243 C 
ATOM     58  O   GLY A   2      52.099  18.996  15.049  0.00  0.00    -0.273 OA
ATOM     59  N   GLU A   3      50.162  19.302  13.949  0.00  0.00    -0.297 N 
ATOM     60  H   GLU A   3      49.222  18.919  13.722  0.00  0.00    +0.150 HD
BRANCH  57  61
ATOM     61  CA  GLY A   2      50.412  17.315  15.295  0.00  0.00    +0.176 C 
BRANCH  61  64
ATOM     62  C   ILE A   1      50.518  15.915  17.253  0.00  0.00    +0.238 C 
ATOM     63  O   ILE A   1      49.617  15.196  16.829  0.00  0.00    -0.274 OA
ATOM     64  N   GLY A   2      50.973  16.968  16.586  0.00  0.00    -0.296 N 
ATOM     65  H   GLY A   2      51.736  17.547  16.991  0.00  0.00    +0.150 HD
BRANCH  62  66
ATOM     66  CA  ILE A   1      51.176  15.631  18.597  0.00  0.00    +0.145 C 
BRANCH  66  67
ATOM     67  N   ILE A   1      52.376  16.440  18.782  0.00  0.00    -0.238 NA
ATOM     68  H   ILE A   1      52.310  17.473  18.680  0.00  0.00    +0.142 HD
ENDBRANCH  66  67
BRANCH  66  69
ATOM     69  CB  ILE A   1      50.131  15.901  19.698  0.00  0.00    +0.025 C 
ATOM     70  CG2 ILE A   1      50.738  15.468  21.024  0.00  0.00    +0.002 C 
BRANCH  69  71
ATOM     71  CG1 ILE A   1      49.720  17.398  19.729  0.00  0.00    +0.002 C 
ATOM     72  CD1 ILE A   1      48.578  17.708  20.686  0.00  0.00    +0.000 C 
ENDBRANCH  69  71
ENDBRANCH  66  69
ENDBRANCH  62  66
ENDBRANCH  61  64
ENDBRANCH  57  61
ENDBRANCH  56  59
BRANCH  56  73
ATOM     73  CB  GLU A   3      51.662  20.365  12.312  0.00  0.00    +0.041 C 
BRANCH  73  74
ATOM     74  CG  GLU A   3      51.553  19.397  11.155  0.00  0.00    +0.116 C 
BRANCH  74  75
ATOM     75  CD  GLU A   3      52.893  19.182  10.471  0.00  0.00    +0.365 C 
ATOM     76  OE2 GLU A   3      53.842  18.730  11.148  0.00  0.00    -0.246 OA
ATOM     77  OE1 GLU A   3      52.999  19.469   9.260  0.00  0.00    -0.246 OA
ENDBRANCH  74  75
ENDBRANCH  73  74
ENDBRANCH  56  73
ENDBRANCH  52  56
ENDBRANCH  51  54
ENDBRANCH  47  51
ENDBRANCH  46  48
BRANCH  46  78
ATOM     78  CB  SER A   5      47.202  27.014   8.997  0.00  0.00    +0.166 C 
BRANCH  78  79
ATOM     79  OG  SER A   5      47.374  27.869   7.882  0.00  0.00    -0.380 OA
ATOM     80  H   SER A   5      48.239  28.343   7.962  0.00  0.00    +0.211 HD
ENDBRANCH  78  79
ENDBRANCH  46  78
ENDBRANCH  42  46
ENDBRANCH   1  43
BRANCH   1  81
ATOM     81  CB  THR A   6      51.488  28.982   9.918  0.00  0.00    +0.137 C 
ATOM     82  CG2 THR A   6      50.861  29.468  11.222  0.00  0.00    +0.034 C 
BRANCH  81  83
ATOM     83  OG1 THR A   6      52.734  29.652   9.695  0.00  0.00    -0.382 OA
ATOM     84  HG1 THR A   6      53.355  29.447  10.438  0.00  0.00    +0.210 HD
ENDBRANCH  81  83
ENDBRANCH   1  81
TORSDOF 37
REMARK  Name = ../refined-set-2016/4app/4app_pocket.pdb
REMARK  233 active torsions:
REMARK  status: ('A' for Active; 'I' for Inactive)
REMARK    1  A    between atoms: _1  and  _3
REMARK    2  A    between atoms: _3  and  _4
REMARK    3  A    between atoms: _3  and  _6
REMARK    4  A    between atoms: _6  and  _7
REMARK    5  A    between atoms: _10  and  _12
REMARK    6  A    between atoms: _12  and  _13
REMARK    7  A    between atoms: _15  and  _17
REMARK    8  A    between atoms: _17  and  _18
REMARK    9  A    between atoms: _17  and  _20
REMARK   10  A    between atoms: _20  and  _21
REMARK   11  A    between atoms: _21  and  _22
REMARK   12  A    between atoms: _25  and  _27
REMARK   13  A    between atoms: _27  and  _28
REMARK   14  A    between atoms: _30  and  _32
REMARK   15  A    between atoms: _32  and  _33
REMARK   16  A    between atoms: _32  and  _35
REMARK   17  A    between atoms: _35  and  _36
REMARK   18  A    between atoms: _38  and  _40
REMARK   19  A    between atoms: _40  and  _41
REMARK   20  A    between atoms: _40  and  _43
REMARK   21  A    between atoms: _43  and  _44
REMARK   22  A    between atoms: _47  and  _49
REMARK   23  A    between atoms: _49  and  _50
REMARK   24  A    between atoms: _52  and  _54
REMARK   25  A    between atoms: _54  and  _55
REMARK   26  A    between atoms: _54  and  _57
REMARK   27  A    between atoms: _57  and  _58
REMARK   28  A    between atoms: _61  and  _63
REMARK   29  A    between atoms: _63  and  _64
REMARK   30  A    between atoms: _63  and  _66
REMARK   31  A    between atoms: _69  and  _71
REMARK   32  A    between atoms: _71  and  _72
REMARK   33  A    between atoms: _71  and  _74
REMARK   34  A    between atoms: _76  and  _78
REMARK   35  A    between atoms: _78  and  _79
REMARK   36  A    between atoms: _78  and  _81
REMARK   37  A    between atoms: _81  and  _82
REMARK   38  A    between atoms: _85  and  _87
REMARK   39  A    between atoms: _87  and  _88
REMARK   40  A    between atoms: _87  and  _90
REMARK   41  A    between atoms: _90  and  _91
REMARK   42  A    between atoms: _94  and  _96
REMARK   43  A    between atoms: _96  and  _97
REMARK   44  A    between atoms: _96  and  _99
REMARK   45  A    between atoms: _102  and  _104
REMARK   46  A    between atoms: _104  and  _105
REMARK   47  A    between atoms: _108  and  _110
REMARK   48  A    between atoms: _110  and  _111
REMARK   49  A    between atoms: _110  and  _113
REMARK   50  A    between atoms: _116  and  _118
REMARK   51  A    between atoms: _118  and  _119
REMARK   52  A    between atoms: _118  and  _121
REMARK   53  A    between atoms: _121  and  _122
REMARK   54  A    between atoms: _122  and  _123
REMARK   55  A    between atoms: _123  and  _124
REMARK   56  A    between atoms: _124  and  _125
REMARK   57  A    between atoms: _129  and  _131
REMARK   58  A    between atoms: _131  and  _132
REMARK   59  A    between atoms: _131  and  _134
REMARK   60  A    between atoms: _134  and  _135
REMARK   61  A    between atoms: _135  and  _136
REMARK   62  A    between atoms: _136  and  _137
REMARK   63  A    between atoms: _137  and  _138
REMARK   64  A    between atoms: _142  and  _144
REMARK   65  A    between atoms: _144  and  _145
REMARK   66  A    between atoms: _144  and  _147
REMARK   67  A    between atoms: _147  and  _148
REMARK   68  A    between atoms: _148  and  _149
REMARK   69  A    between atoms: _151  and  _153
REMARK   70  A    between atoms: _153  and  _154
REMARK   71  A    between atoms: _153  and  _156
REMARK   72  A    between atoms: _156  and  _157
REMARK   73  A    between atoms: _160  and  _162
REMARK   74  A    between atoms: _162  and  _163
REMARK   75  A    between atoms: _162  and  _165
REMARK   76  A    between atoms: _165  and  _166
REMARK   77  A    between atoms: _166  and  _167
REMARK   78  A    between atoms: _172  and  _174
REMARK   79  A    between atoms: _174  and  _175
REMARK   80  A    between atoms: _174  and  _177
REMARK   81  A    between atoms: _177  and  _178
REMARK   82  A    between atoms: _178  and  _179
REMARK   83  A    between atoms: _182  and  _184
REMARK   84  A    between atoms: _184  and  _185
REMARK   85  A    between atoms: _184  and  _187
REMARK   86  A    between atoms: _190  and  _192
REMARK   87  A    between atoms: _192  and  _193
REMARK   88  A    between atoms: _192  and  _195
REMARK   89  A    between atoms: _195  and  _196
REMARK   90  A    between atoms: _196  and  _197
REMARK   91  A    between atoms: _200  and  _202
REMARK   92  A    between atoms: _202  and  _203
REMARK   93  A    between atoms: _202  and  _205
REMARK   94  A    between atoms: _205  and  _206
REMARK   95  A    between atoms: _206  and  _207
REMARK   96  A    between atoms: _209  and  _211
REMARK   97  A    between atoms: _211  and  _212
REMARK   98  A    between atoms: _211  and  _214
REMARK   99  A    between atoms: _214  and  _215
REMARK  100  A    between atoms: _218  and  _220
REMARK  101  A    between atoms: _220  and  _221
REMARK  102  A    between atoms: _220  and  _223
REMARK  103  A    between atoms: _226  and  _228
REMARK  104  A    between atoms: _228  and  _229
REMARK  105  A    between atoms: _228  and  _231
REMARK  106  A    between atoms: _234  and  _236
REMARK  107  A    between atoms: _236  and  _237
REMARK  108  A    between atoms: _236  and  _239
REMARK  109  A    between atoms: _239  and  _240
REMARK  110  A    between atoms: _240  and  _241
REMARK  111  A    between atoms: _243  and  _245
REMARK  112  A    between atoms: _245  and  _246
REMARK  113  A    between atoms: _245  and  _248
REMARK  114  A    between atoms: _248  and  _249
REMARK  115  A    between atoms: _249  and  _250
REMARK  116  A    between atoms: _253  and  _255
REMARK  117  A    between atoms: _255  and  _256
REMARK  118  A    between atoms: _255  and  _258
REMARK  119  A    between atoms: _258  and  _259
REMARK  120  A    between atoms: _265  and  _267
REMARK  121  A    between atoms: _267  and  _268
REMARK  122  A    between atoms: _267  and  _270
REMARK  123  A    between atoms: _270  and  _271
REMARK  124  A    between atoms: _274  and  _276
REMARK  125  A    between atoms: _276  and  _277
REMARK  126  A    between atoms: _276  and  _279
REMARK  127  A    between atoms: _279  and  _280
REMARK  128  A    between atoms: _280  and  _281
REMARK  129  A    between atoms: _284  and  _286
REMARK  130  A    between atoms: _286  and  _287
REMARK  131  A    between atoms: _289  and  _291
REMARK  132  A    between atoms: _291  and  _292
REMARK  133  A    between atoms: _294  and  _296
REMARK  134  A    between atoms: _296  and  _297
REMARK  135  A    between atoms: _300  and  _302
REMARK  136  A    between atoms: _302  and  _303
REMARK  137  A    between atoms: _302  and  _305
REMARK  138  A    between atoms: _305  and  _306
REMARK  139  A    between atoms: _309  and  _311
REMARK  140  A    between atoms: _311  and  _312
REMARK  141  A    between atoms: _311  and  _314
REMARK  142  A    between atoms: _314  and  _315
REMARK  143  A    between atoms: _318  and  _320
REMARK  144  A    between atoms: _320  and  _321
REMARK  145  A    between atoms: _320  and  _323
REMARK  146  A    between atoms: _323  and  _324
REMARK  147  A    between atoms: _327  and  _329
REMARK  148  A    between atoms: _329  and  _330
REMARK  149  A    between atoms: _329  and  _332
REMARK  150  A    between atoms: _332  and  _333
REMARK  151  A    between atoms: _336  and  _338
REMARK  152  A    between atoms: _338  and  _339
REMARK  153  A    between atoms: _338  and  _341
REMARK  154  A    between atoms: _341  and  _342
REMARK  155  A    between atoms: _345  and  _347
REMARK  156  A    between atoms: _347  and  _348
REMARK  157  A    between atoms: _347  and  _350
REMARK  158  A    between atoms: _350  and  _351
REMARK  159  A    between atoms: _356  and  _358
REMARK  160  A    between atoms: _358  and  _359
REMARK  161  A    between atoms: _358  and  _361
REMARK  162  A    between atoms: _361  and  _362
REMARK  163  A    between atoms: _365  and  _367
REMARK  164  A    between atoms: _367  and  _368
REMARK  165  A    between atoms: _367  and  _370
REMARK  166  A    between atoms: _370  and  _371
REMARK  167  A    between atoms: _371  and  _372
REMARK  168  A    between atoms: _372  and  _373
REMARK  169  A    between atoms: _373  and  _374
REMARK  170  A    between atoms: _378  and  _380
REMARK  171  A    between atoms: _380  and  _381
REMARK  172  A    between atoms: _380  and  _383
REMARK  173  A    between atoms: _383  and  _384
REMARK  174  A    between atoms: _386  and  _388
REMARK  175  A    between atoms: _388  and  _389
REMARK  176  A    between atoms: _388  and  _391
REMARK  177  A    between atoms: _391  and  _392
REMARK  178  A    between atoms: _395  and  _397
REMARK  179  A    between atoms: _397  and  _398
REMARK  180  A    between atoms: _397  and  _400
REMARK  181  A    between atoms: _400  and  _401
REMARK  182  A    between atoms: _403  and  _405
REMARK  183  A    between atoms: _405  and  _406
REMARK  184  A    between atoms: _405  and  _408
REMARK  185  A    between atoms: _408  and  _409
REMARK  186  A    between atoms: _412  and  _414
REMARK  187  A    between atoms: _414  and  _415
REMARK  188  A    between atoms: _414  and  _417
REMARK  189  A    between atoms: _417  and  _418
REMARK  190  A    between atoms: _421  and  _423
REMARK  191  A    between atoms: _423  and  _424
REMARK  192  A    between atoms: _423  and  _426
REMARK  193  A    between atoms: _426  and  _427
REMARK  194  A    between atoms: _430  and  _432
REMARK  195  A    between atoms: _432  and  _433
REMARK  196  A    between atoms: _432  and  _435
REMARK  197  A    between atoms: _435  and  _436
REMARK  198  A    between atoms: _439  and  _441
REMARK  199  A    between atoms: _441  and  _442
REMARK  200  A    between atoms: _441  and  _444
REMARK  201  A    between atoms: _444  and  _445
REMARK  202  A    between atoms: _447  and  _449
REMARK  203  A    between atoms: _449  and  _450
REMARK  204  A    between atoms: _449  and  _452
REMARK  205  A    between atoms: _452  and  _453
REMARK  206  A    between atoms: _456  and  _458
REMARK  207  A    between atoms: _458  and  _459
REMARK  208  A    between atoms: _458  and  _461
REMARK  209  A    between atoms: _461  and  _462
REMARK  210  A    between atoms: _468  and  _470
REMARK  211  A    between atoms: _470  and  _471
REMARK  212  A    between atoms: _473  and  _475
REMARK  213  A    between atoms: _475  and  _476
REMARK  214  A    between atoms: _475  and  _478
REMARK  215  A    between atoms: _478  and  _479
REMARK  216  A    between atoms: _479  and  _480
REMARK  217  A    between atoms: _482  and  _484
REMARK  218  A    between atoms: _484  and  _485
REMARK  219  A    between atoms: _484  and  _487
REMARK  220  A    between atoms: _487  and  _488
REMARK  221  A    between atoms: _488  and  _489
REMARK  222  A    between atoms: _489  and  _490
REMARK  223  A    between atoms: _499  and  _501
REMARK  224  A    between atoms: _501  and  _502
REMARK  225  A    between atoms: _501  and  _504
REMARK  226  A    between atoms: _504  and  _505
REMARK  227  A    between atoms: _505  and  _506
REMARK  228  A    between atoms: _511  and  _513
REMARK  229  A    between atoms: _513  and  _514
REMARK  230  A    between atoms: _513  and  _516
REMARK  231  A    between atoms: _516  and  _517
REMARK  232  A    between atoms: _517  and  _518
REMARK  233  A    between atoms: _518  and  _519
REMARK                            x       y       z     vdW  Elec       q    Type
REMARK                         _______ _______ _______ _____ _____    ______ ____
ROOT
ATOM      1  CA  LYS A   5      51.128  25.821  19.715  0.00  0.00    +0.149 C 
ENDROOT
BRANCH   1   2
ATOM      2  C   LYS A   5      52.372  26.634  19.356  0.00  0.00    +0.241 C 
ATOM      3  O   LYS A   5      52.500  27.790  19.758  0.00  0.00    -0.273 OA
ATOM      4  N   LYS A   6      53.292  26.020  18.618  0.00  0.00    -0.297 N 
ATOM      5  H   LYS A   6      53.134  25.031  18.336  0.00  0.00    +0.150 HD
BRANCH   4   6
ATOM      6  CA  LYS A   6      54.519  26.692  18.190  0.00  0.00    +0.149 C 
BRANCH   6   7
ATOM      7  C   LYS A   6      54.355  27.143  16.740  0.00  0.00    +0.241 C 
ATOM      8  N   MET A   7      54.343  28.456  16.527  0.00  0.00    -0.297 N 
ATOM      9  H   MET A   7      54.467  29.100  17.334  0.00  0.00    +0.150 HD
ATOM     10  O   LYS A   6      54.248  26.317  15.835  0.00  0.00    -0.273 OA
BRANCH   8  11
ATOM     11  CA  MET A   7      54.161  29.018  15.193  0.00  0.00    +0.149 C 
BRANCH  11  12
ATOM     12  C   MET A   7      55.420  29.630  14.585  0.00  0.00    +0.241 C 
ATOM     13  O   MET A   7      56.131  30.396  15.235  0.00  0.00    -0.273 OA
ATOM     14  N   ASP A   8      55.673  29.294  13.324  0.00  0.00    -0.298 N 
ATOM     15  H   ASP A   8      55.022  28.645  12.838  0.00  0.00    +0.150 HD
BRANCH  14  16
ATOM     16  CA  ASP A   8      56.831  29.804  12.598  0.00  0.00    +0.148 C 
BRANCH  16  17
ATOM     17  C   ASP A   8      56.518  31.220  12.120  0.00  0.00    +0.227 C 
ATOM     18  O   ASP A   8      55.718  31.402  11.209  0.00  0.00    -0.286 OA
ENDBRANCH  16  17
BRANCH  16  19
ATOM     19  CB  ASP A   8      57.126  28.912  11.388  0.00  0.00    +0.142 C 
BRANCH  19  20
ATOM     20  CG  ASP A   8      58.446  29.259  10.720  0.00  0.00    +0.367 C 
ATOM     21  OD2 ASP A   8      58.804  30.457  10.684  0.00  0.00    -0.246 OA
ATOM     22  OD1 ASP A   8      59.119  28.330  10.221  0.00  0.00    -0.246 OA
ENDBRANCH  19  20
ENDBRANCH  16  19
ENDBRANCH  14  16
ENDBRANCH  11  12
BRANCH  11  23
ATOM     23  CB  MET A   7      53.063  30.079  15.236  0.00  0.00    +0.041 C 
BRANCH  23  24
ATOM     24  CG  MET A   7      51.836  29.410  15.810  0.00  0.00    +0.060 C 
BRANCH  24  25
ATOM     25  SD  MET A   7      50.534  30.592  16.104  0.00  0.00    -0.139 S 
ATOM     26  CE  MET A   7      49.841  30.697  14.448  0.00  0.00    +0.069 C 
ENDBRANCH  24  25
ENDBRANCH  23  24
ENDBRANCH  11  23
ENDBRANCH   8  11
ENDBRANCH   6   7
BRANCH   6  27
ATOM     27  CB  LYS A   6      55.721  25.746  18.304  0.00  0.00    +0.029 C 
BRANCH  27  28
ATOM     28  CG  LYS A   6      56.041  25.301  19.717  0.00  0.00    +0.000 C 
BRANCH  28  29
ATOM     29  CD  LYS A   6      57.307  24.469  19.782  0.00  0.00    -0.024 C 
BRANCH  29  30
ATOM     30  CE  LYS A   6      57.648  24.033  21.196  0.00  0.00    -0.086 C 
BRANCH  30  31
ATOM     31  NZ  LYS A   6      58.954  23.313  21.248  0.00  0.00    +0.380 N 
ATOM     32  HZ1 LYS A   6      59.154  23.031  22.229  0.00  0.00    -0.089 HD
ATOM     33  HZ2 LYS A   6      59.709  23.942  20.906  0.00  0.00    -0.089 HD
ATOM     34  HZ3 LYS A   6      58.906  22.467  20.645  0.00  0.00    -0.089 HD
ENDBRANCH  30  31
ENDBRANCH  29  30
ENDBRANCH  28  29
ENDBRANCH  27  28
ENDBRANCH   6  27
ENDBRANCH   4   6
ENDBRANCH   1   2
BRANCH   1  36
ATOM     35  C   VAL A   4      51.555  24.399  21.629  0.00  0.00    +0.241 C 
ATOM     36  N   LYS A   5      51.146  25.561  21.140  0.00  0.00    -0.297 N 
ATOM     37  H   LYS A   5      50.830  26.304  21.795  0.00  0.00    +0.150 HD
ATOM     38  O   VAL A   4      51.916  23.466  20.915  0.00  0.00    -0.273 OA
BRANCH  35  39
ATOM     39  CA  VAL A   4      51.543  24.280  23.151  0.00  0.00    +0.149 C 
BRANCH  39  42
ATOM     40  C   ALA A   3      49.701  23.295  24.389  0.00  0.00    +0.241 C 
ATOM     41  O   ALA A   3      49.338  24.389  24.812  0.00  0.00    -0.273 OA
ATOM     42  N   VAL A   4      50.754  23.139  23.591  0.00  0.00    -0.297 N 
ATOM     43  H   VAL A   4      51.018  22.184  23.276  0.00  0.00    +0.150 HD
BRANCH  40  44
ATOM     44  CA  ALA A   3      48.947  22.033  24.775  0.00  0.00    +0.149 C 
ATOM     45  CB  ALA A   3      47.700  21.883  23.912  0.00  0.00    +0.031 C 
BRANCH  44  48
ATOM     46  C   VAL A   2      49.197  21.367  27.096  0.00  0.00    +0.241 C 
ATOM     47  O   VAL A   2      50.092  20.568  26.816  0.00  0.00    -0.273 OA
ATOM     48  N   ALA A   3      48.584  22.111  26.181  0.00  0.00    -0.297 N 
ATOM     49  H   ALA A   3      47.829  22.762  26.477  0.00  0.00    +0.150 HD
BRANCH  46  50
ATOM     50  CA  VAL A   2      48.733  21.550  28.539  0.00  0.00    +0.148 C 
BRANCH  50  53
ATOM     51  C   LEU A   1      48.559  19.868  30.312  0.00  0.00    +0.238 C 
ATOM     52  O   LEU A   1      47.388  20.156  30.559  0.00  0.00    -0.274 OA
ATOM     53  N   VAL A   2      49.279  20.488  29.379  0.00  0.00    -0.297 N 
ATOM     54  H   VAL A   2      50.270  20.204  29.243  0.00  0.00    +0.150 HD
BRANCH  51  55
ATOM     55  CA  LEU A   1      49.271  18.764  31.095  0.00  0.00    +0.145 C 
BRANCH  55  56
ATOM     56  N   LEU A   1      48.967  18.880  32.514  0.00  0.00    -0.238 NA
ATOM     57  H   LEU A   1      48.154  18.361  32.903  0.00  0.00    +0.142 HD
ENDBRANCH  55  56
BRANCH  55  58
ATOM     58  CB  LEU A   1      48.824  17.367  30.579  0.00  0.00    +0.026 C 
BRANCH  58  59
ATOM     59  CG  LEU A   1      49.445  16.797  29.271  0.00  0.00    +0.002 C 
ATOM     60  CD2 LEU A   1      48.799  15.454  28.954  0.00  0.00    +0.000 C 
ATOM     61  CD1 LEU A   1      49.230  17.755  28.117  0.00  0.00    +0.000 C 
ENDBRANCH  58  59
ENDBRANCH  55  58
ENDBRANCH  51  55
ENDBRANCH  50  53
BRANCH  50  62
ATOM     62  CB  VAL A   2      49.201  22.992  29.008  0.00  0.00    +0.027 C 
ATOM     63  CG2 VAL A   2      48.737  23.251  30.441  0.00  0.00    +0.002 C 
ATOM     64  CG1 VAL A   2      50.722  23.124  28.892  0.00  0.00    +0.002 C 
ENDBRANCH  50  62
ENDBRANCH  46  50
ENDBRANCH  44  48
ENDBRANCH  40  44
ENDBRANCH  39  42
BRANCH  39  65
ATOM     65  CB  VAL A   4      53.016  24.189  23.638  0.00  0.00    +0.027 C 
ATOM     66  CG2 VAL A   4      53.065  24.025  25.143  0.00  0.00    +0.002 C 
ATOM     67  CG1 VAL A   4      53.765  25.446  23.218  0.00  0.00    +0.002 C 
ENDBRANCH  39  65
ENDBRANCH  35  39
ENDBRANCH   1  36
BRANCH   1  68
ATOM     68  CB  LYS A   5      49.863  26.595  19.349  0.00  0.00    +0.029 C 
BRANCH  68  69
ATOM     69  CG  LYS A   5      49.749  27.015  17.902  0.00  0.00    +0.000 C 
BRANCH  69  70
ATOM     70  CD  LYS A   5      48.394  27.634  17.576  0.00  0.00    -0.024 C 
BRANCH  70  71
ATOM     71  CE  LYS A   5      48.106  28.886  18.379  0.00  0.00    -0.086 C 
BRANCH  71  72
ATOM     72  NZ  LYS A   5      46.780  29.470  18.025  0.00  0.00    +0.380 N 
ATOM     73  HZ1 LYS A   5      46.616  30.325  18.594  0.00  0.00    -0.089 HD
ATOM     74  HZ2 LYS A   5      46.033  28.774  18.221  0.00  0.00    -0.089 HD
ATOM     75  HZ3 LYS A   5      46.770  29.717  17.015  0.00  0.00    -0.089 HD
ENDBRANCH  71  72
ENDBRANCH  70  71
ENDBRANCH  69  70
ENDBRANCH  68  69
ENDBRANCH   1  68
TORSDOF 35
REMARK  Name = ../refined-set-2016/4app/4app_pocket.pdb
REMARK  233 active torsions:
REMARK  status: ('A' for Active; 'I' for Inactive)
REMARK    1  A    between atoms: _1  and  _3
REMARK    2  A    between atoms: _3  and  _4
REMARK    3  A    between atoms: _3  and  _6
REMARK    4  A    between atoms: _6  and  _7
REMARK    5  A    between atoms: _10  and  _12
REMARK    6  A    between atoms: _12  and  _13
REMARK    7  A    between atoms: _15  and  _17
REMARK    8  A    between atoms: _17  and  _18
REMARK    9  A    between atoms: _17  and  _20
REMARK   10  A    between atoms: _20  and  _21
REMARK   11  A    between atoms: _21  and  _22
REMARK   12  A    between atoms: _25  and  _27
REMARK   13  A    between atoms: _27  and  _28
REMARK   14  A    between atoms: _30  and  _32
REMARK   15  A    between atoms: _32  and  _33
REMARK   16  A    between atoms: _32  and  _35
REMARK   17  A    between atoms: _35  and  _36
REMARK   18  A    between atoms: _38  and  _40
REMARK   19  A    between atoms: _40  and  _41
REMARK   20  A    between atoms: _40  and  _43
REMARK   21  A    between atoms: _43  and  _44
REMARK   22  A    between atoms: _47  and  _49
REMARK   23  A    between atoms: _49  and  _50
REMARK   24  A    between atoms: _52  and  _54
REMARK   25  A    between atoms: _54  and  _55
REMARK   26  A    between atoms: _54  and  _57
REMARK   27  A    between atoms: _57  and  _58
REMARK   28  A    between atoms: _61  and  _63
REMARK   29  A    between atoms: _63  and  _64
REMARK   30  A    between atoms: _63  and  _66
REMARK   31  A    between atoms: _69  and  _71
REMARK   32  A    between atoms: _71  and  _72
REMARK   33  A    between atoms: _71  and  _74
REMARK   34  A    between atoms: _76  and  _78
REMARK   35  A    between atoms: _78  and  _79
REMARK   36  A    between atoms: _78  and  _81
REMARK   37  A    between atoms: _81  and  _82
REMARK   38  A    between atoms: _85  and  _87
REMARK   39  A    between atoms: _87  and  _88
REMARK   40  A    between atoms: _87  and  _90
REMARK   41  A    between atoms: _90  and  _91
REMARK   42  A    between atoms: _94  and  _96
REMARK   43  A    between atoms: _96  and  _97
REMARK   44  A    between atoms: _96  and  _99
REMARK   45  A    between atoms: _102  and  _104
REMARK   46  A    between atoms: _104  and  _105
REMARK   47  A    between atoms: _108  and  _110
REMARK   48  A    between atoms: _110  and  _111
REMARK   49  A    between atoms: _110  and  _113
REMARK   50  A    between atoms: _116  and  _118
REMARK   51  A    between atoms: _118  and  _119
REMARK   52  A    between atoms: _118  and  _121
REMARK   53  A    between atoms: _121  and  _122
REMARK   54  A    between atoms: _122  and  _123
REMARK   55  A    between atoms: _123  and  _124
REMARK   56  A    between atoms: _124  and  _125
REMARK   57  A    between atoms: _129  and  _131
REMARK   58  A    between atoms: _131  and  _132
REMARK   59  A    between atoms: _131  and  _134
REMARK   60  A    between atoms: _134  and  _135
REMARK   61  A    between atoms: _135  and  _136
REMARK   62  A    between atoms: _136  and  _137
REMARK   63  A    between atoms: _137  and  _138
REMARK   64  A    between atoms: _142  and  _144
REMARK   65  A    between atoms: _144  and  _145
REMARK   66  A    between atoms: _144  and  _147
REMARK   67  A    between atoms: _147  and  _148
REMARK   68  A    between atoms: _148  and  _149
REMARK   69  A    between atoms: _151  and  _153
REMARK   70  A    between atoms: _153  and  _154
REMARK   71  A    between atoms: _153  and  _156
REMARK   72  A    between atoms: _156  and  _157
REMARK   73  A    between atoms: _160  and  _162
REMARK   74  A    between atoms: _162  and  _163
REMARK   75  A    between atoms: _162  and  _165
REMARK   76  A    between atoms: _165  and  _166
REMARK   77  A    between atoms: _166  and  _167
REMARK   78  A    between atoms: _172  and  _174
REMARK   79  A    between atoms: _174  and  _175
REMARK   80  A    between atoms: _174  and  _177
REMARK   81  A    between atoms: _177  and  _178
REMARK   82  A    between atoms: _178  and  _179
REMARK   83  A    between atoms: _182  and  _184
REMARK   84  A    between atoms: _184  and  _185
REMARK   85  A    between atoms: _184  and  _187
REMARK   86  A    between atoms: _190  and  _192
REMARK   87  A    between atoms: _192  and  _193
REMARK   88  A    between atoms: _192  and  _195
REMARK   89  A    between atoms: _195  and  _196
REMARK   90  A    between atoms: _196  and  _197
REMARK   91  A    between atoms: _200  and  _202
REMARK   92  A    between atoms: _202  and  _203
REMARK   93  A    between atoms: _202  and  _205
REMARK   94  A    between atoms: _205  and  _206
REMARK   95  A    between atoms: _206  and  _207
REMARK   96  A    between atoms: _209  and  _211
REMARK   97  A    between atoms: _211  and  _212
REMARK   98  A    between atoms: _211  and  _214
REMARK   99  A    between atoms: _214  and  _215
REMARK  100  A    between atoms: _218  and  _220
REMARK  101  A    between atoms: _220  and  _221
REMARK  102  A    between atoms: _220  and  _223
REMARK  103  A    between atoms: _226  and  _228
REMARK  104  A    between atoms: _228  and  _229
REMARK  105  A    between atoms: _228  and  _231
REMARK  106  A    between atoms: _234  and  _236
REMARK  107  A    between atoms: _236  and  _237
REMARK  108  A    between atoms: _236  and  _239
REMARK  109  A    between atoms: _239  and  _240
REMARK  110  A    between atoms: _240  and  _241
REMARK  111  A    between atoms: _243  and  _245
REMARK  112  A    between atoms: _245  and  _246
REMARK  113  A    between atoms: _245  and  _248
REMARK  114  A    between atoms: _248  and  _249
REMARK  115  A    between atoms: _249  and  _250
REMARK  116  A    between atoms: _253  and  _255
REMARK  117  A    between atoms: _255  and  _256
REMARK  118  A    between atoms: _255  and  _258
REMARK  119  A    between atoms: _258  and  _259
REMARK  120  A    between atoms: _265  and  _267
REMARK  121  A    between atoms: _267  and  _268
REMARK  122  A    between atoms: _267  and  _270
REMARK  123  A    between atoms: _270  and  _271
REMARK  124  A    between atoms: _274  and  _276
REMARK  125  A    between atoms: _276  and  _277
REMARK  126  A    between atoms: _276  and  _279
REMARK  127  A    between atoms: _279  and  _280
REMARK  128  A    between atoms: _280  and  _281
REMARK  129  A    between atoms: _284  and  _286
REMARK  130  A    between atoms: _286  and  _287
REMARK  131  A    between atoms: _289  and  _291
REMARK  132  A    between atoms: _291  and  _292
REMARK  133  A    between atoms: _294  and  _296
REMARK  134  A    between atoms: _296  and  _297
REMARK  135  A    between atoms: _300  and  _302
REMARK  136  A    between atoms: _302  and  _303
REMARK  137  A    between atoms: _302  and  _305
REMARK  138  A    between atoms: _305  and  _306
REMARK  139  A    between atoms: _309  and  _311
REMARK  140  A    between atoms: _311  and  _312
REMARK  141  A    between atoms: _311  and  _314
REMARK  142  A    between atoms: _314  and  _315
REMARK  143  A    between atoms: _318  and  _320
REMARK  144  A    between atoms: _320  and  _321
REMARK  145  A    between atoms: _320  and  _323
REMARK  146  A    between atoms: _323  and  _324
REMARK  147  A    between atoms: _327  and  _329
REMARK  148  A    between atoms: _329  and  _330
REMARK  149  A    between atoms: _329  and  _332
REMARK  150  A    between atoms: _332  and  _333
REMARK  151  A    between atoms: _336  and  _338
REMARK  152  A    between atoms: _338  and  _339
REMARK  153  A    between atoms: _338  and  _341
REMARK  154  A    between atoms: _341  and  _342
REMARK  155  A    between atoms: _345  and  _347
REMARK  156  A    between atoms: _347  and  _348
REMARK  157  A    between atoms: _347  and  _350
REMARK  158  A    between atoms: _350  and  _351
REMARK  159  A    between atoms: _356  and  _358
REMARK  160  A    between atoms: _358  and  _359
REMARK  161  A    between atoms: _358  and  _361
REMARK  162  A    between atoms: _361  and  _362
REMARK  163  A    between atoms: _365  and  _367
REMARK  164  A    between atoms: _367  and  _368
REMARK  165  A    between atoms: _367  and  _370
REMARK  166  A    between atoms: _370  and  _371
REMARK  167  A    between atoms: _371  and  _372
REMARK  168  A    between atoms: _372  and  _373
REMARK  169  A    between atoms: _373  and  _374
REMARK  170  A    between atoms: _378  and  _380
REMARK  171  A    between atoms: _380  and  _381
REMARK  172  A    between atoms: _380  and  _383
REMARK  173  A    between atoms: _383  and  _384
REMARK  174  A    between atoms: _386  and  _388
REMARK  175  A    between atoms: _388  and  _389
REMARK  176  A    between atoms: _388  and  _391
REMARK  177  A    between atoms: _391  and  _392
REMARK  178  A    between atoms: _395  and  _397
REMARK  179  A    between atoms: _397  and  _398
REMARK  180  A    between atoms: _397  and  _400
REMARK  181  A    between atoms: _400  and  _401
REMARK  182  A    between atoms: _403  and  _405
REMARK  183  A    between atoms: _405  and  _406
REMARK  184  A    between atoms: _405  and  _408
REMARK  185  A    between atoms: _408  and  _409
REMARK  186  A    between atoms: _412  and  _414
REMARK  187  A    between atoms: _414  and  _415
REMARK  188  A    between atoms: _414  and  _417
REMARK  189  A    between atoms: _417  and  _418
REMARK  190  A    between atoms: _421  and  _423
REMARK  191  A    between atoms: _423  and  _424
REMARK  192  A    between atoms: _423  and  _426
REMARK  193  A    between atoms: _426  and  _427
REMARK  194  A    between atoms: _430  and  _432
REMARK  195  A    between atoms: _432  and  _433
REMARK  196  A    between atoms: _432  and  _435
REMARK  197  A    between atoms: _435  and  _436
REMARK  198  A    between atoms: _439  and  _441
REMARK  199  A    between atoms: _441  and  _442
REMARK  200  A    between atoms: _441  and  _444
REMARK  201  A    between atoms: _444  and  _445
REMARK  202  A    between atoms: _447  and  _449
REMARK  203  A    between atoms: _449  and  _450
REMARK  204  A    between atoms: _449  and  _452
REMARK  205  A    between atoms: _452  and  _453
REMARK  206  A    between atoms: _456  and  _458
REMARK  207  A    between atoms: _458  and  _459
REMARK  208  A    between atoms: _458  and  _461
REMARK  209  A    between atoms: _461  and  _462
REMARK  210  A    between atoms: _468  and  _470
REMARK  211  A    between atoms: _470  and  _471
REMARK  212  A    between atoms: _473  and  _475
REMARK  213  A    between atoms: _475  and  _476
REMARK  214  A    between atoms: _475  and  _478
REMARK  215  A    between atoms: _478  and  _479
REMARK  216  A    between atoms: _479  and  _480
REMARK  217  A    between atoms: _482  and  _484
REMARK  218  A    between atoms: _484  and  _485
REMARK  219  A    between atoms: _484  and  _487
REMARK  220  A    between atoms: _487  and  _488
REMARK  221  A    between atoms: _488  and  _489
REMARK  222  A    between atoms: _489  and  _490
REMARK  223  A    between atoms: _499  and  _501
REMARK  224  A    between atoms: _501  and  _502
REMARK  225  A    between atoms: _501  and  _504
REMARK  226  A    between atoms: _504  and  _505
REMARK  227  A    between atoms: _505  and  _506
REMARK  228  A    between atoms: _511  and  _513
REMARK  229  A    between atoms: _513  and  _514
REMARK  230  A    between atoms: _513  and  _516
REMARK  231  A    between atoms: _516  and  _517
REMARK  232  A    between atoms: _517  and  _518
REMARK  233  A    between atoms: _518  and  _519
REMARK                            x       y       z     vdW  Elec       q    Type
REMARK                         _______ _______ _______ _____ _____    ______ ____
ROOT
ATOM      1  CB  GLN A   1      52.916  34.845   9.780  0.00  0.00    +0.035 C 
ENDROOT
BRANCH   1   2
ATOM      2  CA  GLN A   1      52.898  33.967   8.512  0.00  0.00    +0.134 C 
BRANCH   2   3
ATOM      3  N   GLN A   1      54.168  33.269   8.357  0.00  0.00    -0.239 NA
ATOM      4  H   GLN A   1      55.016  33.635   8.836  0.00  0.00    +0.142 HD
ENDBRANCH   2   3
BRANCH   2   5
ATOM      5  C   GLN A   1      52.595  34.837   7.296  0.00  0.00    +0.224 C 
ATOM      6  O   GLN A   1      53.362  35.742   6.968  0.00  0.00    -0.287 OA
ENDBRANCH   2   5
ENDBRANCH   1   2
BRANCH   1   7
ATOM      7  CG  GLN A   1      53.134  34.086  11.081  0.00  0.00    +0.087 C 
BRANCH   7   8
ATOM      8  CD  GLN A   1      52.149  32.946  11.266  0.00  0.00    +0.219 C 
ATOM      9  NE2 GLN A   1      52.672  31.737  11.425  0.00  0.00    -0.329 N 
ATOM     10 HE21 GLN A   1      52.050  30.915  11.559  0.00  0.00    +0.145 HD
ATOM     11 HE22 GLN A   1      53.704  31.612  11.416  0.00  0.00    +0.145 HD
ATOM     12  OE1 GLN A   1      50.935  33.150  11.269  0.00  0.00    -0.275 OA
ENDBRANCH   7   8
ENDBRANCH   1   7
TORSDOF 5
REMARK  Name = ../refined-set-2016/4app/4app_pocket.pdb
REMARK  233 active torsions:
REMARK  status: ('A' for Active; 'I' for Inactive)
REMARK    1  A    between atoms: _1  and  _3
REMARK    2  A    between atoms: _3  and  _4
REMARK    3  A    between atoms: _3  and  _6
REMARK    4  A    between atoms: _6  and  _7
REMARK    5  A    between atoms: _10  and  _12
REMARK    6  A    between atoms: _12  and  _13
REMARK    7  A    between atoms: _15  and  _17
REMARK    8  A    between atoms: _17  and  _18
REMARK    9  A    between atoms: _17  and  _20
REMARK   10  A    between atoms: _20  and  _21
REMARK   11  A    between atoms: _21  and  _22
REMARK   12  A    between atoms: _25  and  _27
REMARK   13  A    between atoms: _27  and  _28
REMARK   14  A    between atoms: _30  and  _32
REMARK   15  A    between atoms: _32  and  _33
REMARK   16  A    between atoms: _32  and  _35
REMARK   17  A    between atoms: _35  and  _36
REMARK   18  A    between atoms: _38  and  _40
REMARK   19  A    between atoms: _40  and  _41
REMARK   20  A    between atoms: _40  and  _43
REMARK   21  A    between atoms: _43  and  _44
REMARK   22  A    between atoms: _47  and  _49
REMARK   23  A    between atoms: _49  and  _50
REMARK   24  A    between atoms: _52  and  _54
REMARK   25  A    between atoms: _54  and  _55
REMARK   26  A    between atoms: _54  and  _57
REMARK   27  A    between atoms: _57  and  _58
REMARK   28  A    between atoms: _61  and  _63
REMARK   29  A    between atoms: _63  and  _64
REMARK   30  A    between atoms: _63  and  _66
REMARK   31  A    between atoms: _69  and  _71
REMARK   32  A    between atoms: _71  and  _72
REMARK   33  A    between atoms: _71  and  _74
REMARK   34  A    between atoms: _76  and  _78
REMARK   35  A    between atoms: _78  and  _79
REMARK   36  A    between atoms: _78  and  _81
REMARK   37  A    between atoms: _81  and  _82
REMARK   38  A    between atoms: _85  and  _87
REMARK   39  A    between atoms: _87  and  _88
REMARK   40  A    between atoms: _87  and  _90
REMARK   41  A    between atoms: _90  and  _91
REMARK   42  A    between atoms: _94  and  _96
REMARK   43  A    between atoms: _96  and  _97
REMARK   44  A    between atoms: _96  and  _99
REMARK   45  A    between atoms: _102  and  _104
REMARK   46  A    between atoms: _104  and  _105
REMARK   47  A    between atoms: _108  and  _110
REMARK   48  A    between atoms: _110  and  _111
REMARK   49  A    between atoms: _110  and  _113
REMARK   50  A    between atoms: _116  and  _118
REMARK   51  A    between atoms: _118  and  _119
REMARK   52  A    between atoms: _118  and  _121
REMARK   53  A    between atoms: _121  and  _122
REMARK   54  A    between atoms: _122  and  _123
REMARK   55  A    between atoms: _123  and  _124
REMARK   56  A    between atoms: _124  and  _125
REMARK   57  A    between atoms: _129  and  _131
REMARK   58  A    between atoms: _131  and  _132
REMARK   59  A    between atoms: _131  and  _134
REMARK   60  A    between atoms: _134  and  _135
REMARK   61  A    between atoms: _135  and  _136
REMARK   62  A    between atoms: _136  and  _137
REMARK   63  A    between atoms: _137  and  _138
REMARK   64  A    between atoms: _142  and  _144
REMARK   65  A    between atoms: _144  and  _145
REMARK   66  A    between atoms: _144  and  _147
REMARK   67  A    between atoms: _147  and  _148
REMARK   68  A    between atoms: _148  and  _149
REMARK   69  A    between atoms: _151  and  _153
REMARK   70  A    between atoms: _153  and  _154
REMARK   71  A    between atoms: _153  and  _156
REMARK   72  A    between atoms: _156  and  _157
REMARK   73  A    between atoms: _160  and  _162
REMARK   74  A    between atoms: _162  and  _163
REMARK   75  A    between atoms: _162  and  _165
REMARK   76  A    between atoms: _165  and  _166
REMARK   77  A    between atoms: _166  and  _167
REMARK   78  A    between atoms: _172  and  _174
REMARK   79  A    between atoms: _174  and  _175
REMARK   80  A    between atoms: _174  and  _177
REMARK   81  A    between atoms: _177  and  _178
REMARK   82  A    between atoms: _178  and  _179
REMARK   83  A    between atoms: _182  and  _184
REMARK   84  A    between atoms: _184  and  _185
REMARK   85  A    between atoms: _184  and  _187
REMARK   86  A    between atoms: _190  and  _192
REMARK   87  A    between atoms: _192  and  _193
REMARK   88  A    between atoms: _192  and  _195
REMARK   89  A    between atoms: _195  and  _196
REMARK   90  A    between atoms: _196  and  _197
REMARK   91  A    between atoms: _200  and  _202
REMARK   92  A    between atoms: _202  and  _203
REMARK   93  A    between atoms: _202  and  _205
REMARK   94  A    between atoms: _205  and  _206
REMARK   95  A    between atoms: _206  and  _207
REMARK   96  A    between atoms: _209  and  _211
REMARK   97  A    between atoms: _211  and  _212
REMARK   98  A    between atoms: _211  and  _214
REMARK   99  A    between atoms: _214  and  _215
REMARK  100  A    between atoms: _218  and  _220
REMARK  101  A    between atoms: _220  and  _221
REMARK  102  A    between atoms: _220  and  _223
REMARK  103  A    between atoms: _226  and  _228
REMARK  104  A    between atoms: _228  and  _229
REMARK  105  A    between atoms: _228  and  _231
REMARK  106  A    between atoms: _234  and  _236
REMARK  107  A    between atoms: _236  and  _237
REMARK  108  A    between atoms: _236  and  _239
REMARK  109  A    between atoms: _239  and  _240
REMARK  110  A    between atoms: _240  and  _241
REMARK  111  A    between atoms: _243  and  _245
REMARK  112  A    between atoms: _245  and  _246
REMARK  113  A    between atoms: _245  and  _248
REMARK  114  A    between atoms: _248  and  _249
REMARK  115  A    between atoms: _249  and  _250
REMARK  116  A    between atoms: _253  and  _255
REMARK  117  A    between atoms: _255  and  _256
REMARK  118  A    between atoms: _255  and  _258
REMARK  119  A    between atoms: _258  and  _259
REMARK  120  A    between atoms: _265  and  _267
REMARK  121  A    between atoms: _267  and  _268
REMARK  122  A    between atoms: _267  and  _270
REMARK  123  A    between atoms: _270  and  _271
REMARK  124  A    between atoms: _274  and  _276
REMARK  125  A    between atoms: _276  and  _277
REMARK  126  A    between atoms: _276  and  _279
REMARK  127  A    between atoms: _279  and  _280
REMARK  128  A    between atoms: _280  and  _281
REMARK  129  A    between atoms: _284  and  _286
REMARK  130  A    between atoms: _286  and  _287
REMARK  131  A    between atoms: _289  and  _291
REMARK  132  A    between atoms: _291  and  _292
REMARK  133  A    between atoms: _294  and  _296
REMARK  134  A    between atoms: _296  and  _297
REMARK  135  A    between atoms: _300  and  _302
REMARK  136  A    between atoms: _302  and  _303
REMARK  137  A    between atoms: _302  and  _305
REMARK  138  A    between atoms: _305  and  _306
REMARK  139  A    between atoms: _309  and  _311
REMARK  140  A    between atoms: _311  and  _312
REMARK  141  A    between atoms: _311  and  _314
REMARK  142  A    between atoms: _314  and  _315
REMARK  143  A    between atoms: _318  and  _320
REMARK  144  A    between atoms: _320  and  _321
REMARK  145  A    between atoms: _320  and  _323
REMARK  146  A    between atoms: _323  and  _324
REMARK  147  A    between atoms: _327  and  _329
REMARK  148  A    between atoms: _329  and  _330
REMARK  149  A    between atoms: _329  and  _332
REMARK  150  A    between atoms: _332  and  _333
REMARK  151  A    between atoms: _336  and  _338
REMARK  152  A    between atoms: _338  and  _339
REMARK  153  A    between atoms: _338  and  _341
REMARK  154  A    between atoms: _341  and  _342
REMARK  155  A    between atoms: _345  and  _347
REMARK  156  A    between atoms: _347  and  _348
REMARK  157  A    between atoms: _347  and  _350
REMARK  158  A    between atoms: _350  and  _351
REMARK  159  A    between atoms: _356  and  _358
REMARK  160  A    between atoms: _358  and  _359
REMARK  161  A    between atoms: _358  and  _361
REMARK  162  A    between atoms: _361  and  _362
REMARK  163  A    between atoms: _365  and  _367
REMARK  164  A    between atoms: _367  and  _368
REMARK  165  A    between atoms: _367  and  _370
REMARK  166  A    between atoms: _370  and  _371
REMARK  167  A    between atoms: _371  and  _372
REMARK  168  A    between atoms: _372  and  _373
REMARK  169  A    between atoms: _373  and  _374
REMARK  170  A    between atoms: _378  and  _380
REMARK  171  A    between atoms: _380  and  _381
REMARK  172  A    between atoms: _380  and  _383
REMARK  173  A    between atoms: _383  and  _384
REMARK  174  A    between atoms: _386  and  _388
REMARK  175  A    between atoms: _388  and  _389
REMARK  176  A    between atoms: _388  and  _391
REMARK  177  A    between atoms: _391  and  _392
REMARK  178  A    between atoms: _395  and  _397
REMARK  179  A    between atoms: _397  and  _398
REMARK  180  A    between atoms: _397  and  _400
REMARK  181  A    between atoms: _400  and  _401
REMARK  182  A    between atoms: _403  and  _405
REMARK  183  A    between atoms: _405  and  _406
REMARK  184  A    between atoms: _405  and  _408
REMARK  185  A    between atoms: _408  and  _409
REMARK  186  A    between atoms: _412  and  _414
REMARK  187  A    between atoms: _414  and  _415
REMARK  188  A    between atoms: _414  and  _417
REMARK  189  A    between atoms: _417  and  _418
REMARK  190  A    between atoms: _421  and  _423
REMARK  191  A    between atoms: _423  and  _424
REMARK  192  A    between atoms: _423  and  _426
REMARK  193  A    between atoms: _426  and  _427
REMARK  194  A    between atoms: _430  and  _432
REMARK  195  A    between atoms: _432  and  _433
REMARK  196  A    between atoms: _432  and  _435
REMARK  197  A    between atoms: _435  and  _436
REMARK  198  A    between atoms: _439  and  _441
REMARK  199  A    between atoms: _441  and  _442
REMARK  200  A    between atoms: _441  and  _444
REMARK  201  A    between atoms: _444  and  _445
REMARK  202  A    between atoms: _447  and  _449
REMARK  203  A    between atoms: _449  and  _450
REMARK  204  A    between atoms: _449  and  _452
REMARK  205  A    between atoms: _452  and  _453
REMARK  206  A    between atoms: _456  and  _458
REMARK  207  A    between atoms: _458  and  _459
REMARK  208  A    between atoms: _458  and  _461
REMARK  209  A    between atoms: _461  and  _462
REMARK  210  A    between atoms: _468  and  _470
REMARK  211  A    between atoms: _470  and  _471
REMARK  212  A    between atoms: _473  and  _475
REMARK  213  A    between atoms: _475  and  _476
REMARK  214  A    between atoms: _475  and  _478
REMARK  215  A    between atoms: _478  and  _479
REMARK  216  A    between atoms: _479  and  _480
REMARK  217  A    between atoms: _482  and  _484
REMARK  218  A    between atoms: _484  and  _485
REMARK  219  A    between atoms: _484  and  _487
REMARK  220  A    between atoms: _487  and  _488
REMARK  221  A    between atoms: _488  and  _489
REMARK  222  A    between atoms: _489  and  _490
REMARK  223  A    between atoms: _499  and  _501
REMARK  224  A    between atoms: _501  and  _502
REMARK  225  A    between atoms: _501  and  _504
REMARK  226  A    between atoms: _504  and  _505
REMARK  227  A    between atoms: _505  and  _506
REMARK  228  A    between atoms: _511  and  _513
REMARK  229  A    between atoms: _513  and  _514
REMARK  230  A    between atoms: _513  and  _516
REMARK  231  A    between atoms: _516  and  _517
REMARK  232  A    between atoms: _517  and  _518
REMARK  233  A    between atoms: _518  and  _519
REMARK                            x       y       z     vdW  Elec       q    Type
REMARK                         _______ _______ _______ _____ _____    ______ ____
ROOT
ATOM      1  CA  GLU A   1      44.717  36.729  17.875  0.00  0.00    +0.134 C 
ENDROOT
BRANCH   1   2
ATOM      2  N   GLU A   1      45.122  37.928  17.157  0.00  0.00    -0.239 NA
ATOM      3  H   GLU A   1      45.798  37.844  16.372  0.00  0.00    +0.142 HD
ENDBRANCH   1   2
BRANCH   1   4
ATOM      4  C   GLU A   1      45.167  36.760  19.334  0.00  0.00    +0.224 C 
ATOM      5  O   GLU A   1      44.377  36.491  20.235  0.00  0.00    -0.287 OA
ENDBRANCH   1   4
BRANCH   1   6
ATOM      6  CB  GLU A   1      45.303  35.480  17.188  0.00  0.00    +0.037 C 
BRANCH   6   7
ATOM      7  CG  GLU A   1      44.631  34.190  17.616  0.00  0.00    +0.116 C 
BRANCH   7   8
ATOM      8  CD  GLU A   1      45.407  32.953  17.204  0.00  0.00    +0.365 C 
ATOM      9  OE2 GLU A   1      45.270  31.917  17.888  0.00  0.00    -0.246 OA
ATOM     10  OE1 GLU A   1      46.141  33.007  16.194  0.00  0.00    -0.246 OA
ENDBRANCH   7   8
ENDBRANCH   6   7
ENDBRANCH   1   6
TORSDOF 5
REMARK  Name = ../refined-set-2016/4app/4app_pocket.pdb
REMARK  233 active torsions:
REMARK  status: ('A' for Active; 'I' for Inactive)
REMARK    1  A    between atoms: _1  and  _3
REMARK    2  A    between atoms: _3  and  _4
REMARK    3  A    between atoms: _3  and  _6
REMARK    4  A    between atoms: _6  and  _7
REMARK    5  A    between atoms: _10  and  _12
REMARK    6  A    between atoms: _12  and  _13
REMARK    7  A    between atoms: _15  and  _17
REMARK    8  A    between atoms: _17  and  _18
REMARK    9  A    between atoms: _17  and  _20
REMARK   10  A    between atoms: _20  and  _21
REMARK   11  A    between atoms: _21  and  _22
REMARK   12  A    between atoms: _25  and  _27
REMARK   13  A    between atoms: _27  and  _28
REMARK   14  A    between atoms: _30  and  _32
REMARK   15  A    between atoms: _32  and  _33
REMARK   16  A    between atoms: _32  and  _35
REMARK   17  A    between atoms: _35  and  _36
REMARK   18  A    between atoms: _38  and  _40
REMARK   19  A    between atoms: _40  and  _41
REMARK   20  A    between atoms: _40  and  _43
REMARK   21  A    between atoms: _43  and  _44
REMARK   22  A    between atoms: _47  and  _49
REMARK   23  A    between atoms: _49  and  _50
REMARK   24  A    between atoms: _52  and  _54
REMARK   25  A    between atoms: _54  and  _55
REMARK   26  A    between atoms: _54  and  _57
REMARK   27  A    between atoms: _57  and  _58
REMARK   28  A    between atoms: _61  and  _63
REMARK   29  A    between atoms: _63  and  _64
REMARK   30  A    between atoms: _63  and  _66
REMARK   31  A    between atoms: _69  and  _71
REMARK   32  A    between atoms: _71  and  _72
REMARK   33  A    between atoms: _71  and  _74
REMARK   34  A    between atoms: _76  and  _78
REMARK   35  A    between atoms: _78  and  _79
REMARK   36  A    between atoms: _78  and  _81
REMARK   37  A    between atoms: _81  and  _82
REMARK   38  A    between atoms: _85  and  _87
REMARK   39  A    between atoms: _87  and  _88
REMARK   40  A    between atoms: _87  and  _90
REMARK   41  A    between atoms: _90  and  _91
REMARK   42  A    between atoms: _94  and  _96
REMARK   43  A    between atoms: _96  and  _97
REMARK   44  A    between atoms: _96  and  _99
REMARK   45  A    between atoms: _102  and  _104
REMARK   46  A    between atoms: _104  and  _105
REMARK   47  A    between atoms: _108  and  _110
REMARK   48  A    between atoms: _110  and  _111
REMARK   49  A    between atoms: _110  and  _113
REMARK   50  A    between atoms: _116  and  _118
REMARK   51  A    between atoms: _118  and  _119
REMARK   52  A    between atoms: _118  and  _121
REMARK   53  A    between atoms: _121  and  _122
REMARK   54  A    between atoms: _122  and  _123
REMARK   55  A    between atoms: _123  and  _124
REMARK   56  A    between atoms: _124  and  _125
REMARK   57  A    between atoms: _129  and  _131
REMARK   58  A    between atoms: _131  and  _132
REMARK   59  A    between atoms: _131  and  _134
REMARK   60  A    between atoms: _134  and  _135
REMARK   61  A    between atoms: _135  and  _136
REMARK   62  A    between atoms: _136  and  _137
REMARK   63  A    between atoms: _137  and  _138
REMARK   64  A    between atoms: _142  and  _144
REMARK   65  A    between atoms: _144  and  _145
REMARK   66  A    between atoms: _144  and  _147
REMARK   67  A    between atoms: _147  and  _148
REMARK   68  A    between atoms: _148  and  _149
REMARK   69  A    between atoms: _151  and  _153
REMARK   70  A    between atoms: _153  and  _154
REMARK   71  A    between atoms: _153  and  _156
REMARK   72  A    between atoms: _156  and  _157
REMARK   73  A    between atoms: _160  and  _162
REMARK   74  A    between atoms: _162  and  _163
REMARK   75  A    between atoms: _162  and  _165
REMARK   76  A    between atoms: _165  and  _166
REMARK   77  A    between atoms: _166  and  _167
REMARK   78  A    between atoms: _172  and  _174
REMARK   79  A    between atoms: _174  and  _175
REMARK   80  A    between atoms: _174  and  _177
REMARK   81  A    between atoms: _177  and  _178
REMARK   82  A    between atoms: _178  and  _179
REMARK   83  A    between atoms: _182  and  _184
REMARK   84  A    between atoms: _184  and  _185
REMARK   85  A    between atoms: _184  and  _187
REMARK   86  A    between atoms: _190  and  _192
REMARK   87  A    between atoms: _192  and  _193
REMARK   88  A    between atoms: _192  and  _195
REMARK   89  A    between atoms: _195  and  _196
REMARK   90  A    between atoms: _196  and  _197
REMARK   91  A    between atoms: _200  and  _202
REMARK   92  A    between atoms: _202  and  _203
REMARK   93  A    between atoms: _202  and  _205
REMARK   94  A    between atoms: _205  and  _206
REMARK   95  A    between atoms: _206  and  _207
REMARK   96  A    between atoms: _209  and  _211
REMARK   97  A    between atoms: _211  and  _212
REMARK   98  A    between atoms: _211  and  _214
REMARK   99  A    between atoms: _214  and  _215
REMARK  100  A    between atoms: _218  and  _220
REMARK  101  A    between atoms: _220  and  _221
REMARK  102  A    between atoms: _220  and  _223
REMARK  103  A    between atoms: _226  and  _228
REMARK  104  A    between atoms: _228  and  _229
REMARK  105  A    between atoms: _228  and  _231
REMARK  106  A    between atoms: _234  and  _236
REMARK  107  A    between atoms: _236  and  _237
REMARK  108  A    between atoms: _236  and  _239
REMARK  109  A    between atoms: _239  and  _240
REMARK  110  A    between atoms: _240  and  _241
REMARK  111  A    between atoms: _243  and  _245
REMARK  112  A    between atoms: _245  and  _246
REMARK  113  A    between atoms: _245  and  _248
REMARK  114  A    between atoms: _248  and  _249
REMARK  115  A    between atoms: _249  and  _250
REMARK  116  A    between atoms: _253  and  _255
REMARK  117  A    between atoms: _255  and  _256
REMARK  118  A    between atoms: _255  and  _258
REMARK  119  A    between atoms: _258  and  _259
REMARK  120  A    between atoms: _265  and  _267
REMARK  121  A    between atoms: _267  and  _268
REMARK  122  A    between atoms: _267  and  _270
REMARK  123  A    between atoms: _270  and  _271
REMARK  124  A    between atoms: _274  and  _276
REMARK  125  A    between atoms: _276  and  _277
REMARK  126  A    between atoms: _276  and  _279
REMARK  127  A    between atoms: _279  and  _280
REMARK  128  A    between atoms: _280  and  _281
REMARK  129  A    between atoms: _284  and  _286
REMARK  130  A    between atoms: _286  and  _287
REMARK  131  A    between atoms: _289  and  _291
REMARK  132  A    between atoms: _291  and  _292
REMARK  133  A    between atoms: _294  and  _296
REMARK  134  A    between atoms: _296  and  _297
REMARK  135  A    between atoms: _300  and  _302
REMARK  136  A    between atoms: _302  and  _303
REMARK  137  A    between atoms: _302  and  _305
REMARK  138  A    between atoms: _305  and  _306
REMARK  139  A    between atoms: _309  and  _311
REMARK  140  A    between atoms: _311  and  _312
REMARK  141  A    between atoms: _311  and  _314
REMARK  142  A    between atoms: _314  and  _315
REMARK  143  A    between atoms: _318  and  _320
REMARK  144  A    between atoms: _320  and  _321
REMARK  145  A    between atoms: _320  and  _323
REMARK  146  A    between atoms: _323  and  _324
REMARK  147  A    between atoms: _327  and  _329
REMARK  148  A    between atoms: _329  and  _330
REMARK  149  A    between atoms: _329  and  _332
REMARK  150  A    between atoms: _332  and  _333
REMARK  151  A    between atoms: _336  and  _338
REMARK  152  A    between atoms: _338  and  _339
REMARK  153  A    between atoms: _338  and  _341
REMARK  154  A    between atoms: _341  and  _342
REMARK  155  A    between atoms: _345  and  _347
REMARK  156  A    between atoms: _347  and  _348
REMARK  157  A    between atoms: _347  and  _350
REMARK  158  A    between atoms: _350  and  _351
REMARK  159  A    between atoms: _356  and  _358
REMARK  160  A    between atoms: _358  and  _359
REMARK  161  A    between atoms: _358  and  _361
REMARK  162  A    between atoms: _361  and  _362
REMARK  163  A    between atoms: _365  and  _367
REMARK  164  A    between atoms: _367  and  _368
REMARK  165  A    between atoms: _367  and  _370
REMARK  166  A    between atoms: _370  and  _371
REMARK  167  A    between atoms: _371  and  _372
REMARK  168  A    between atoms: _372  and  _373
REMARK  169  A    between atoms: _373  and  _374
REMARK  170  A    between atoms: _378  and  _380
REMARK  171  A    between atoms: _380  and  _381
REMARK  172  A    between atoms: _380  and  _383
REMARK  173  A    between atoms: _383  and  _384
REMARK  174  A    between atoms: _386  and  _388
REMARK  175  A    between atoms: _388  and  _389
REMARK  176  A    between atoms: _388  and  _391
REMARK  177  A    between atoms: _391  and  _392
REMARK  178  A    between atoms: _395  and  _397
REMARK  179  A    between atoms: _397  and  _398
REMARK  180  A    between atoms: _397  and  _400
REMARK  181  A    between atoms: _400  and  _401
REMARK  182  A    between atoms: _403  and  _405
REMARK  183  A    between atoms: _405  and  _406
REMARK  184  A    between atoms: _405  and  _408
REMARK  185  A    between atoms: _408  and  _409
REMARK  186  A    between atoms: _412  and  _414
REMARK  187  A    between atoms: _414  and  _415
REMARK  188  A    between atoms: _414  and  _417
REMARK  189  A    between atoms: _417  and  _418
REMARK  190  A    between atoms: _421  and  _423
REMARK  191  A    between atoms: _423  and  _424
REMARK  192  A    between atoms: _423  and  _426
REMARK  193  A    between atoms: _426  and  _427
REMARK  194  A    between atoms: _430  and  _432
REMARK  195  A    between atoms: _432  and  _433
REMARK  196  A    between atoms: _432  and  _435
REMARK  197  A    between atoms: _435  and  _436
REMARK  198  A    between atoms: _439  and  _441
REMARK  199  A    between atoms: _441  and  _442
REMARK  200  A    between atoms: _441  and  _444
REMARK  201  A    between atoms: _444  and  _445
REMARK  202  A    between atoms: _447  and  _449
REMARK  203  A    between atoms: _449  and  _450
REMARK  204  A    between atoms: _449  and  _452
REMARK  205  A    between atoms: _452  and  _453
REMARK  206  A    between atoms: _456  and  _458
REMARK  207  A    between atoms: _458  and  _459
REMARK  208  A    between atoms: _458  and  _461
REMARK  209  A    between atoms: _461  and  _462
REMARK  210  A    between atoms: _468  and  _470
REMARK  211  A    between atoms: _470  and  _471
REMARK  212  A    between atoms: _473  and  _475
REMARK  213  A    between atoms: _475  and  _476
REMARK  214  A    between atoms: _475  and  _478
REMARK  215  A    between atoms: _478  and  _479
REMARK  216  A    between atoms: _479  and  _480
REMARK  217  A    between atoms: _482  and  _484
REMARK  218  A    between atoms: _484  and  _485
REMARK  219  A    between atoms: _484  and  _487
REMARK  220  A    between atoms: _487  and  _488
REMARK  221  A    between atoms: _488  and  _489
REMARK  222  A    between atoms: _489  and  _490
REMARK  223  A    between atoms: _499  and  _501
REMARK  224  A    between atoms: _501  and  _502
REMARK  225  A    between atoms: _501  and  _504
REMARK  226  A    between atoms: _504  and  _505
REMARK  227  A    between atoms: _505  and  _506
REMARK  228  A    between atoms: _511  and  _513
REMARK  229  A    between atoms: _513  and  _514
REMARK  230  A    between atoms: _513  and  _516
REMARK  231  A    between atoms: _516  and  _517
REMARK  232  A    between atoms: _517  and  _518
REMARK  233  A    between atoms: _518  and  _519
REMARK                            x       y       z     vdW  Elec       q    Type
REMARK                         _______ _______ _______ _____ _____    ______ ____
ROOT
ATOM      1  CA  GLU A   2      41.309  29.105  26.739  0.00  0.00    +0.149 C 
ENDROOT
BRANCH   1   3
ATOM      2  C   VAL A   1      40.035  28.417  24.799  0.00  0.00    +0.238 C 
ATOM      3  N   GLU A   2      40.568  28.111  25.974  0.00  0.00    -0.297 N 
ATOM      4  H   GLU A   2      40.456  27.150  26.354  0.00  0.00    +0.150 HD
ATOM      5  O   VAL A   1      40.156  29.528  24.283  0.00  0.00    -0.274 OA
BRANCH   2   6
ATOM      6  CA  VAL A   1      39.253  27.309  24.098  0.00  0.00    +0.145 C 
BRANCH   6   7
ATOM      7  CB  VAL A   1      40.120  26.714  22.956  0.00  0.00    +0.025 C 
ATOM      8  CG2 VAL A   1      41.448  26.153  23.470  0.00  0.00    +0.002 C 
ATOM      9  CG1 VAL A   1      39.291  25.604  22.299  0.00  0.00    +0.002 C 
ENDBRANCH   6   7
BRANCH   6  10
ATOM     10  N   VAL A   1      37.996  27.856  23.591  0.00  0.00    -0.238 NA
ATOM     11  H   VAL A   1      37.779  27.779  22.577  0.00  0.00    +0.142 HD
ENDBRANCH   6  10
ENDBRANCH   2   6
ENDBRANCH   1   3
BRANCH   1  12
ATOM     12  C   GLU A   2      42.800  29.149  26.433  0.00  0.00    +0.241 C 
ATOM     13  N   MET A   3      43.351  30.357  26.421  0.00  0.00    -0.298 N 
ATOM     14  H   MET A   3      42.743  31.186  26.582  0.00  0.00    +0.150 HD
ATOM     15  O   GLU A   2      43.429  28.121  26.213  0.00  0.00    -0.273 OA
BRANCH  13  16
ATOM     16  CA  MET A   3      44.776  30.566  26.191  0.00  0.00    +0.138 C 
BRANCH  16  17
ATOM     17  C   MET A   3      45.372  30.941  27.544  0.00  0.00    +0.227 C 
ATOM     18  O   MET A   3      44.888  31.865  28.198  0.00  0.00    -0.286 OA
ENDBRANCH  16  17
BRANCH  16  19
ATOM     19  CB  MET A   3      45.002  31.712  25.205  0.00  0.00    +0.039 C 
BRANCH  19  20
ATOM     20  CG  MET A   3      46.478  32.045  25.019  0.00  0.00    +0.060 C 
BRANCH  20  21
ATOM     21  SD  MET A   3      46.733  33.499  23.969  0.00  0.00    -0.139 S 
ATOM     22  CE  MET A   3      45.572  33.140  22.619  0.00  0.00    +0.069 C 
ENDBRANCH  20  21
ENDBRANCH  19  20
ENDBRANCH  16  19
ENDBRANCH  13  16
ENDBRANCH   1  12
BRANCH   1  23
ATOM     23  CB  GLU A   2      41.104  28.860  28.259  0.00  0.00    +0.041 C 
BRANCH  23  24
ATOM     24  CG  GLU A   2      41.522  30.046  29.105  0.00  0.00    +0.116 C 
BRANCH  24  25
ATOM     25  CD  GLU A   2      41.171  29.870  30.573  0.00  0.00    +0.365 C 
ATOM     26  OE2 GLU A   2      41.965  30.292  31.432  0.00  0.00    -0.246 OA
ATOM     27  OE1 GLU A   2      40.088  29.325  30.868  0.00  0.00    -0.246 OA
ENDBRANCH  24  25
ENDBRANCH  23  24
ENDBRANCH   1  23
TORSDOF 13
REMARK  Name = ../refined-set-2016/4app/4app_pocket.pdb
REMARK  233 active torsions:
REMARK  status: ('A' for Active; 'I' for Inactive)
REMARK    1  A    between atoms: _1  and  _3
REMARK    2  A    between atoms: _3  and  _4
REMARK    3  A    between atoms: _3  and  _6
REMARK    4  A    between atoms: _6  and  _7
REMARK    5  A    between atoms: _10  and  _12
REMARK    6  A    between atoms: _12  and  _13
REMARK    7  A    between atoms: _15  and  _17
REMARK    8  A    between atoms: _17  and  _18
REMARK    9  A    between atoms: _17  and  _20
REMARK   10  A    between atoms: _20  and  _21
REMARK   11  A    between atoms: _21  and  _22
REMARK   12  A    between atoms: _25  and  _27
REMARK   13  A    between atoms: _27  and  _28
REMARK   14  A    between atoms: _30  and  _32
REMARK   15  A    between atoms: _32  and  _33
REMARK   16  A    between atoms: _32  and  _35
REMARK   17  A    between atoms: _35  and  _36
REMARK   18  A    between atoms: _38  and  _40
REMARK   19  A    between atoms: _40  and  _41
REMARK   20  A    between atoms: _40  and  _43
REMARK   21  A    between atoms: _43  and  _44
REMARK   22  A    between atoms: _47  and  _49
REMARK   23  A    between atoms: _49  and  _50
REMARK   24  A    between atoms: _52  and  _54
REMARK   25  A    between atoms: _54  and  _55
REMARK   26  A    between atoms: _54  and  _57
REMARK   27  A    between atoms: _57  and  _58
REMARK   28  A    between atoms: _61  and  _63
REMARK   29  A    between atoms: _63  and  _64
REMARK   30  A    between atoms: _63  and  _66
REMARK   31  A    between atoms: _69  and  _71
REMARK   32  A    between atoms: _71  and  _72
REMARK   33  A    between atoms: _71  and  _74
REMARK   34  A    between atoms: _76  and  _78
REMARK   35  A    between atoms: _78  and  _79
REMARK   36  A    between atoms: _78  and  _81
REMARK   37  A    between atoms: _81  and  _82
REMARK   38  A    between atoms: _85  and  _87
REMARK   39  A    between atoms: _87  and  _88
REMARK   40  A    between atoms: _87  and  _90
REMARK   41  A    between atoms: _90  and  _91
REMARK   42  A    between atoms: _94  and  _96
REMARK   43  A    between atoms: _96  and  _97
REMARK   44  A    between atoms: _96  and  _99
REMARK   45  A    between atoms: _102  and  _104
REMARK   46  A    between atoms: _104  and  _105
REMARK   47  A    between atoms: _108  and  _110
REMARK   48  A    between atoms: _110  and  _111
REMARK   49  A    between atoms: _110  and  _113
REMARK   50  A    between atoms: _116  and  _118
REMARK   51  A    between atoms: _118  and  _119
REMARK   52  A    between atoms: _118  and  _121
REMARK   53  A    between atoms: _121  and  _122
REMARK   54  A    between atoms: _122  and  _123
REMARK   55  A    between atoms: _123  and  _124
REMARK   56  A    between atoms: _124  and  _125
REMARK   57  A    between atoms: _129  and  _131
REMARK   58  A    between atoms: _131  and  _132
REMARK   59  A    between atoms: _131  and  _134
REMARK   60  A    between atoms: _134  and  _135
REMARK   61  A    between atoms: _135  and  _136
REMARK   62  A    between atoms: _136  and  _137
REMARK   63  A    between atoms: _137  and  _138
REMARK   64  A    between atoms: _142  and  _144
REMARK   65  A    between atoms: _144  and  _145
REMARK   66  A    between atoms: _144  and  _147
REMARK   67  A    between atoms: _147  and  _148
REMARK   68  A    between atoms: _148  and  _149
REMARK   69  A    between atoms: _151  and  _153
REMARK   70  A    between atoms: _153  and  _154
REMARK   71  A    between atoms: _153  and  _156
REMARK   72  A    between atoms: _156  and  _157
REMARK   73  A    between atoms: _160  and  _162
REMARK   74  A    between atoms: _162  and  _163
REMARK   75  A    between atoms: _162  and  _165
REMARK   76  A    between atoms: _165  and  _166
REMARK   77  A    between atoms: _166  and  _167
REMARK   78  A    between atoms: _172  and  _174
REMARK   79  A    between atoms: _174  and  _175
REMARK   80  A    between atoms: _174  and  _177
REMARK   81  A    between atoms: _177  and  _178
REMARK   82  A    between atoms: _178  and  _179
REMARK   83  A    between atoms: _182  and  _184
REMARK   84  A    between atoms: _184  and  _185
REMARK   85  A    between atoms: _184  and  _187
REMARK   86  A    between atoms: _190  and  _192
REMARK   87  A    between atoms: _192  and  _193
REMARK   88  A    between atoms: _192  and  _195
REMARK   89  A    between atoms: _195  and  _196
REMARK   90  A    between atoms: _196  and  _197
REMARK   91  A    between atoms: _200  and  _202
REMARK   92  A    between atoms: _202  and  _203
REMARK   93  A    between atoms: _202  and  _205
REMARK   94  A    between atoms: _205  and  _206
REMARK   95  A    between atoms: _206  and  _207
REMARK   96  A    between atoms: _209  and  _211
REMARK   97  A    between atoms: _211  and  _212
REMARK   98  A    between atoms: _211  and  _214
REMARK   99  A    between atoms: _214  and  _215
REMARK  100  A    between atoms: _218  and  _220
REMARK  101  A    between atoms: _220  and  _221
REMARK  102  A    between atoms: _220  and  _223
REMARK  103  A    between atoms: _226  and  _228
REMARK  104  A    between atoms: _228  and  _229
REMARK  105  A    between atoms: _228  and  _231
REMARK  106  A    between atoms: _234  and  _236
REMARK  107  A    between atoms: _236  and  _237
REMARK  108  A    between atoms: _236  and  _239
REMARK  109  A    between atoms: _239  and  _240
REMARK  110  A    between atoms: _240  and  _241
REMARK  111  A    between atoms: _243  and  _245
REMARK  112  A    between atoms: _245  and  _246
REMARK  113  A    between atoms: _245  and  _248
REMARK  114  A    between atoms: _248  and  _249
REMARK  115  A    between atoms: _249  and  _250
REMARK  116  A    between atoms: _253  and  _255
REMARK  117  A    between atoms: _255  and  _256
REMARK  118  A    between atoms: _255  and  _258
REMARK  119  A    between atoms: _258  and  _259
REMARK  120  A    between atoms: _265  and  _267
REMARK  121  A    between atoms: _267  and  _268
REMARK  122  A    between atoms: _267  and  _270
REMARK  123  A    between atoms: _270  and  _271
REMARK  124  A    between atoms: _274  and  _276
REMARK  125  A    between atoms: _276  and  _277
REMARK  126  A    between atoms: _276  and  _279
REMARK  127  A    between atoms: _279  and  _280
REMARK  128  A    between atoms: _280  and  _281
REMARK  129  A    between atoms: _284  and  _286
REMARK  130  A    between atoms: _286  and  _287
REMARK  131  A    between atoms: _289  and  _291
REMARK  132  A    between atoms: _291  and  _292
REMARK  133  A    between atoms: _294  and  _296
REMARK  134  A    between atoms: _296  and  _297
REMARK  135  A    between atoms: _300  and  _302
REMARK  136  A    between atoms: _302  and  _303
REMARK  137  A    between atoms: _302  and  _305
REMARK  138  A    between atoms: _305  and  _306
REMARK  139  A    between atoms: _309  and  _311
REMARK  140  A    between atoms: _311  and  _312
REMARK  141  A    between atoms: _311  and  _314
REMARK  142  A    between atoms: _314  and  _315
REMARK  143  A    between atoms: _318  and  _320
REMARK  144  A    between atoms: _320  and  _321
REMARK  145  A    between atoms: _320  and  _323
REMARK  146  A    between atoms: _323  and  _324
REMARK  147  A    between atoms: _327  and  _329
REMARK  148  A    between atoms: _329  and  _330
REMARK  149  A    between atoms: _329  and  _332
REMARK  150  A    between atoms: _332  and  _333
REMARK  151  A    between atoms: _336  and  _338
REMARK  152  A    between atoms: _338  and  _339
REMARK  153  A    between atoms: _338  and  _341
REMARK  154  A    between atoms: _341  and  _342
REMARK  155  A    between atoms: _345  and  _347
REMARK  156  A    between atoms: _347  and  _348
REMARK  157  A    between atoms: _347  and  _350
REMARK  158  A    between atoms: _350  and  _351
REMARK  159  A    between atoms: _356  and  _358
REMARK  160  A    between atoms: _358  and  _359
REMARK  161  A    between atoms: _358  and  _361
REMARK  162  A    between atoms: _361  and  _362
REMARK  163  A    between atoms: _365  and  _367
REMARK  164  A    between atoms: _367  and  _368
REMARK  165  A    between atoms: _367  and  _370
REMARK  166  A    between atoms: _370  and  _371
REMARK  167  A    between atoms: _371  and  _372
REMARK  168  A    between atoms: _372  and  _373
REMARK  169  A    between atoms: _373  and  _374
REMARK  170  A    between atoms: _378  and  _380
REMARK  171  A    between atoms: _380  and  _381
REMARK  172  A    between atoms: _380  and  _383
REMARK  173  A    between atoms: _383  and  _384
REMARK  174  A    between atoms: _386  and  _388
REMARK  175  A    between atoms: _388  and  _389
REMARK  176  A    between atoms: _388  and  _391
REMARK  177  A    between atoms: _391  and  _392
REMARK  178  A    between atoms: _395  and  _397
REMARK  179  A    between atoms: _397  and  _398
REMARK  180  A    between atoms: _397  and  _400
REMARK  181  A    between atoms: _400  and  _401
REMARK  182  A    between atoms: _403  and  _405
REMARK  183  A    between atoms: _405  and  _406
REMARK  184  A    between atoms: _405  and  _408
REMARK  185  A    between atoms: _408  and  _409
REMARK  186  A    between atoms: _412  and  _414
REMARK  187  A    between atoms: _414  and  _415
REMARK  188  A    between atoms: _414  and  _417
REMARK  189  A    between atoms: _417  and  _418
REMARK  190  A    between atoms: _421  and  _423
REMARK  191  A    between atoms: _423  and  _424
REMARK  192  A    between atoms: _423  and  _426
REMARK  193  A    between atoms: _426  and  _427
REMARK  194  A    between atoms: _430  and  _432
REMARK  195  A    between atoms: _432  and  _433
REMARK  196  A    between atoms: _432  and  _435
REMARK  197  A    between atoms: _435  and  _436
REMARK  198  A    between atoms: _439  and  _441
REMARK  199  A    between atoms: _441  and  _442
REMARK  200  A    between atoms: _441  and  _444
REMARK  201  A    between atoms: _444  and  _445
REMARK  202  A    between atoms: _447  and  _449
REMARK  203  A    between atoms: _449  and  _450
REMARK  204  A    between atoms: _449  and  _452
REMARK  205  A    between atoms: _452  and  _453
REMARK  206  A    between atoms: _456  and  _458
REMARK  207  A    between atoms: _458  and  _459
REMARK  208  A    between atoms: _458  and  _461
REMARK  209  A    between atoms: _461  and  _462
REMARK  210  A    between atoms: _468  and  _470
REMARK  211  A    between atoms: _470  and  _471
REMARK  212  A    between atoms: _473  and  _475
REMARK  213  A    between atoms: _475  and  _476
REMARK  214  A    between atoms: _475  and  _478
REMARK  215  A    between atoms: _478  and  _479
REMARK  216  A    between atoms: _479  and  _480
REMARK  217  A    between atoms: _482  and  _484
REMARK  218  A    between atoms: _484  and  _485
REMARK  219  A    between atoms: _484  and  _487
REMARK  220  A    between atoms: _487  and  _488
REMARK  221  A    between atoms: _488  and  _489
REMARK  222  A    between atoms: _489  and  _490
REMARK  223  A    between atoms: _499  and  _501
REMARK  224  A    between atoms: _501  and  _502
REMARK  225  A    between atoms: _501  and  _504
REMARK  226  A    between atoms: _504  and  _505
REMARK  227  A    between atoms: _505  and  _506
REMARK  228  A    between atoms: _511  and  _513
REMARK  229  A    between atoms: _513  and  _514
REMARK  230  A    between atoms: _513  and  _516
REMARK  231  A    between atoms: _516  and  _517
REMARK  232  A    between atoms: _517  and  _518
REMARK  233  A    between atoms: _518  and  _519
REMARK                            x       y       z     vdW  Elec       q    Type
REMARK                         _______ _______ _______ _____ _____    ______ ____
ROOT
ATOM      1  CA  LEU A   1      55.408  32.324  18.758  0.00  0.00    +0.133 C 
ENDROOT
BRANCH   1   2
ATOM      2  N   LEU A   1      56.359  31.875  17.762  0.00  0.00    -0.239 NA
ATOM      3  H   LEU A   1      56.008  31.506  16.855  0.00  0.00    +0.142 HD
ENDBRANCH   1   2
BRANCH   1   4
ATOM      4  C   LEU A   1      54.889  31.050  19.412  0.00  0.00    +0.224 C 
ATOM      5  O   LEU A   1      54.389  30.155  18.733  0.00  0.00    -0.287 OA
ENDBRANCH   1   4
BRANCH   1   6
ATOM      6  CB  LEU A   1      54.238  33.091  18.107  0.00  0.00    +0.025 C 
BRANCH   6   7
ATOM      7  CG  LEU A   1      53.020  33.390  19.092  0.00  0.00    +0.002 C 
ATOM      8  CD2 LEU A   1      53.459  34.289  20.240  0.00  0.00    +0.000 C 
ATOM      9  CD1 LEU A   1      51.893  34.025  18.332  0.00  0.00    +0.000 C 
ENDBRANCH   6   7
ENDBRANCH   1   6
TORSDOF 4
REMARK  Name = ../refined-set-2016/4app/4app_pocket.pdb
REMARK  233 active torsions:
REMARK  status: ('A' for Active; 'I' for Inactive)
REMARK    1  A    between atoms: _1  and  _3
REMARK    2  A    between atoms: _3  and  _4
REMARK    3  A    between atoms: _3  and  _6
REMARK    4  A    between atoms: _6  and  _7
REMARK    5  A    between atoms: _10  and  _12
REMARK    6  A    between atoms: _12  and  _13
REMARK    7  A    between atoms: _15  and  _17
REMARK    8  A    between atoms: _17  and  _18
REMARK    9  A    between atoms: _17  and  _20
REMARK   10  A    between atoms: _20  and  _21
REMARK   11  A    between atoms: _21  and  _22
REMARK   12  A    between atoms: _25  and  _27
REMARK   13  A    between atoms: _27  and  _28
REMARK   14  A    between atoms: _30  and  _32
REMARK   15  A    between atoms: _32  and  _33
REMARK   16  A    between atoms: _32  and  _35
REMARK   17  A    between atoms: _35  and  _36
REMARK   18  A    between atoms: _38  and  _40
REMARK   19  A    between atoms: _40  and  _41
REMARK   20  A    between atoms: _40  and  _43
REMARK   21  A    between atoms: _43  and  _44
REMARK   22  A    between atoms: _47  and  _49
REMARK   23  A    between atoms: _49  and  _50
REMARK   24  A    between atoms: _52  and  _54
REMARK   25  A    between atoms: _54  and  _55
REMARK   26  A    between atoms: _54  and  _57
REMARK   27  A    between atoms: _57  and  _58
REMARK   28  A    between atoms: _61  and  _63
REMARK   29  A    between atoms: _63  and  _64
REMARK   30  A    between atoms: _63  and  _66
REMARK   31  A    between atoms: _69  and  _71
REMARK   32  A    between atoms: _71  and  _72
REMARK   33  A    between atoms: _71  and  _74
REMARK   34  A    between atoms: _76  and  _78
REMARK   35  A    between atoms: _78  and  _79
REMARK   36  A    between atoms: _78  and  _81
REMARK   37  A    between atoms: _81  and  _82
REMARK   38  A    between atoms: _85  and  _87
REMARK   39  A    between atoms: _87  and  _88
REMARK   40  A    between atoms: _87  and  _90
REMARK   41  A    between atoms: _90  and  _91
REMARK   42  A    between atoms: _94  and  _96
REMARK   43  A    between atoms: _96  and  _97
REMARK   44  A    between atoms: _96  and  _99
REMARK   45  A    between atoms: _102  and  _104
REMARK   46  A    between atoms: _104  and  _105
REMARK   47  A    between atoms: _108  and  _110
REMARK   48  A    between atoms: _110  and  _111
REMARK   49  A    between atoms: _110  and  _113
REMARK   50  A    between atoms: _116  and  _118
REMARK   51  A    between atoms: _118  and  _119
REMARK   52  A    between atoms: _118  and  _121
REMARK   53  A    between atoms: _121  and  _122
REMARK   54  A    between atoms: _122  and  _123
REMARK   55  A    between atoms: _123  and  _124
REMARK   56  A    between atoms: _124  and  _125
REMARK   57  A    between atoms: _129  and  _131
REMARK   58  A    between atoms: _131  and  _132
REMARK   59  A    between atoms: _131  and  _134
REMARK   60  A    between atoms: _134  and  _135
REMARK   61  A    between atoms: _135  and  _136
REMARK   62  A    between atoms: _136  and  _137
REMARK   63  A    between atoms: _137  and  _138
REMARK   64  A    between atoms: _142  and  _144
REMARK   65  A    between atoms: _144  and  _145
REMARK   66  A    between atoms: _144  and  _147
REMARK   67  A    between atoms: _147  and  _148
REMARK   68  A    between atoms: _148  and  _149
REMARK   69  A    between atoms: _151  and  _153
REMARK   70  A    between atoms: _153  and  _154
REMARK   71  A    between atoms: _153  and  _156
REMARK   72  A    between atoms: _156  and  _157
REMARK   73  A    between atoms: _160  and  _162
REMARK   74  A    between atoms: _162  and  _163
REMARK   75  A    between atoms: _162  and  _165
REMARK   76  A    between atoms: _165  and  _166
REMARK   77  A    between atoms: _166  and  _167
REMARK   78  A    between atoms: _172  and  _174
REMARK   79  A    between atoms: _174  and  _175
REMARK   80  A    between atoms: _174  and  _177
REMARK   81  A    between atoms: _177  and  _178
REMARK   82  A    between atoms: _178  and  _179
REMARK   83  A    between atoms: _182  and  _184
REMARK   84  A    between atoms: _184  and  _185
REMARK   85  A    between atoms: _184  and  _187
REMARK   86  A    between atoms: _190  and  _192
REMARK   87  A    between atoms: _192  and  _193
REMARK   88  A    between atoms: _192  and  _195
REMARK   89  A    between atoms: _195  and  _196
REMARK   90  A    between atoms: _196  and  _197
REMARK   91  A    between atoms: _200  and  _202
REMARK   92  A    between atoms: _202  and  _203
REMARK   93  A    between atoms: _202  and  _205
REMARK   94  A    between atoms: _205  and  _206
REMARK   95  A    between atoms: _206  and  _207
REMARK   96  A    between atoms: _209  and  _211
REMARK   97  A    between atoms: _211  and  _212
REMARK   98  A    between atoms: _211  and  _214
REMARK   99  A    between atoms: _214  and  _215
REMARK  100  A    between atoms: _218  and  _220
REMARK  101  A    between atoms: _220  and  _221
REMARK  102  A    between atoms: _220  and  _223
REMARK  103  A    between atoms: _226  and  _228
REMARK  104  A    between atoms: _228  and  _229
REMARK  105  A    between atoms: _228  and  _231
REMARK  106  A    between atoms: _234  and  _236
REMARK  107  A    between atoms: _236  and  _237
REMARK  108  A    between atoms: _236  and  _239
REMARK  109  A    between atoms: _239  and  _240
REMARK  110  A    between atoms: _240  and  _241
REMARK  111  A    between atoms: _243  and  _245
REMARK  112  A    between atoms: _245  and  _246
REMARK  113  A    between atoms: _245  and  _248
REMARK  114  A    between atoms: _248  and  _249
REMARK  115  A    between atoms: _249  and  _250
REMARK  116  A    between atoms: _253  and  _255
REMARK  117  A    between atoms: _255  and  _256
REMARK  118  A    between atoms: _255  and  _258
REMARK  119  A    between atoms: _258  and  _259
REMARK  120  A    between atoms: _265  and  _267
REMARK  121  A    between atoms: _267  and  _268
REMARK  122  A    between atoms: _267  and  _270
REMARK  123  A    between atoms: _270  and  _271
REMARK  124  A    between atoms: _274  and  _276
REMARK  125  A    between atoms: _276  and  _277
REMARK  126  A    between atoms: _276  and  _279
REMARK  127  A    between atoms: _279  and  _280
REMARK  128  A    between atoms: _280  and  _281
REMARK  129  A    between atoms: _284  and  _286
REMARK  130  A    between atoms: _286  and  _287
REMARK  131  A    between atoms: _289  and  _291
REMARK  132  A    between atoms: _291  and  _292
REMARK  133  A    between atoms: _294  and  _296
REMARK  134  A    between atoms: _296  and  _297
REMARK  135  A    between atoms: _300  and  _302
REMARK  136  A    between atoms: _302  and  _303
REMARK  137  A    between atoms: _302  and  _305
REMARK  138  A    between atoms: _305  and  _306
REMARK  139  A    between atoms: _309  and  _311
REMARK  140  A    between atoms: _311  and  _312
REMARK  141  A    between atoms: _311  and  _314
REMARK  142  A    between atoms: _314  and  _315
REMARK  143  A    between atoms: _318  and  _320
REMARK  144  A    between atoms: _320  and  _321
REMARK  145  A    between atoms: _320  and  _323
REMARK  146  A    between atoms: _323  and  _324
REMARK  147  A    between atoms: _327  and  _329
REMARK  148  A    between atoms: _329  and  _330
REMARK  149  A    between atoms: _329  and  _332
REMARK  150  A    between atoms: _332  and  _333
REMARK  151  A    between atoms: _336  and  _338
REMARK  152  A    between atoms: _338  and  _339
REMARK  153  A    between atoms: _338  and  _341
REMARK  154  A    between atoms: _341  and  _342
REMARK  155  A    between atoms: _345  and  _347
REMARK  156  A    between atoms: _347  and  _348
REMARK  157  A    between atoms: _347  and  _350
REMARK  158  A    between atoms: _350  and  _351
REMARK  159  A    between atoms: _356  and  _358
REMARK  160  A    between atoms: _358  and  _359
REMARK  161  A    between atoms: _358  and  _361
REMARK  162  A    between atoms: _361  and  _362
REMARK  163  A    between atoms: _365  and  _367
REMARK  164  A    between atoms: _367  and  _368
REMARK  165  A    between atoms: _367  and  _370
REMARK  166  A    between atoms: _370  and  _371
REMARK  167  A    between atoms: _371  and  _372
REMARK  168  A    between atoms: _372  and  _373
REMARK  169  A    between atoms: _373  and  _374
REMARK  170  A    between atoms: _378  and  _380
REMARK  171  A    between atoms: _380  and  _381
REMARK  172  A    between atoms: _380  and  _383
REMARK  173  A    between atoms: _383  and  _384
REMARK  174  A    between atoms: _386  and  _388
REMARK  175  A    between atoms: _388  and  _389
REMARK  176  A    between atoms: _388  and  _391
REMARK  177  A    between atoms: _391  and  _392
REMARK  178  A    between atoms: _395  and  _397
REMARK  179  A    between atoms: _397  and  _398
REMARK  180  A    between atoms: _397  and  _400
REMARK  181  A    between atoms: _400  and  _401
REMARK  182  A    between atoms: _403  and  _405
REMARK  183  A    between atoms: _405  and  _406
REMARK  184  A    between atoms: _405  and  _408
REMARK  185  A    between atoms: _408  and  _409
REMARK  186  A    between atoms: _412  and  _414
REMARK  187  A    between atoms: _414  and  _415
REMARK  188  A    between atoms: _414  and  _417
REMARK  189  A    between atoms: _417  and  _418
REMARK  190  A    between atoms: _421  and  _423
REMARK  191  A    between atoms: _423  and  _424
REMARK  192  A    between atoms: _423  and  _426
REMARK  193  A    between atoms: _426  and  _427
REMARK  194  A    between atoms: _430  and  _432
REMARK  195  A    between atoms: _432  and  _433
REMARK  196  A    between atoms: _432  and  _435
REMARK  197  A    between atoms: _435  and  _436
REMARK  198  A    between atoms: _439  and  _441
REMARK  199  A    between atoms: _441  and  _442
REMARK  200  A    between atoms: _441  and  _444
REMARK  201  A    between atoms: _444  and  _445
REMARK  202  A    between atoms: _447  and  _449
REMARK  203  A    between atoms: _449  and  _450
REMARK  204  A    between atoms: _449  and  _452
REMARK  205  A    between atoms: _452  and  _453
REMARK  206  A    between atoms: _456  and  _458
REMARK  207  A    between atoms: _458  and  _459
REMARK  208  A    between atoms: _458  and  _461
REMARK  209  A    between atoms: _461  and  _462
REMARK  210  A    between atoms: _468  and  _470
REMARK  211  A    between atoms: _470  and  _471
REMARK  212  A    between atoms: _473  and  _475
REMARK  213  A    between atoms: _475  and  _476
REMARK  214  A    between atoms: _475  and  _478
REMARK  215  A    between atoms: _478  and  _479
REMARK  216  A    between atoms: _479  and  _480
REMARK  217  A    between atoms: _482  and  _484
REMARK  218  A    between atoms: _484  and  _485
REMARK  219  A    between atoms: _484  and  _487
REMARK  220  A    between atoms: _487  and  _488
REMARK  221  A    between atoms: _488  and  _489
REMARK  222  A    between atoms: _489  and  _490
REMARK  223  A    between atoms: _499  and  _501
REMARK  224  A    between atoms: _501  and  _502
REMARK  225  A    between atoms: _501  and  _504
REMARK  226  A    between atoms: _504  and  _505
REMARK  227  A    between atoms: _505  and  _506
REMARK  228  A    between atoms: _511  and  _513
REMARK  229  A    between atoms: _513  and  _514
REMARK  230  A    between atoms: _513  and  _516
REMARK  231  A    between atoms: _516  and  _517
REMARK  232  A    between atoms: _517  and  _518
REMARK  233  A    between atoms: _518  and  _519
REMARK                            x       y       z     vdW  Elec       q    Type
REMARK                         _______ _______ _______ _____ _____    ______ ____
ROOT
ATOM      1  CA  GLU A   7      41.130  15.357  24.870  0.00  0.00    +0.149 C 
ENDROOT
BRANCH   1   3
ATOM      2  C   LEU A   6      41.332  17.743  24.306  0.00  0.00    +0.241 C 
ATOM      3  N   GLU A   7      41.031  16.781  25.172  0.00  0.00    -0.297 N 
ATOM      4  H   GLU A   7      40.706  17.059  26.120  0.00  0.00    +0.150 HD
ATOM      5  O   LEU A   6      41.681  17.532  23.143  0.00  0.00    -0.273 OA
BRANCH   2   6
ATOM      6  CA  LEU A   6      41.212  19.163  24.853  0.00  0.00    +0.149 C 
BRANCH   6   9
ATOM      7  C   PHE A   5      43.104  19.906  26.191  0.00  0.00    +0.241 C 
ATOM      8  O   PHE A   5      42.535  19.630  27.248  0.00  0.00    -0.273 OA
ATOM      9  N   LEU A   6      42.541  19.744  24.996  0.00  0.00    -0.297 N 
ATOM     10  H   LEU A   6      43.061  20.039  24.145  0.00  0.00    +0.150 HD
BRANCH   7  11
ATOM     11  CA  PHE A   5      44.511  20.496  26.201  0.00  0.00    +0.153 C 
BRANCH  11  13
ATOM     12  C   GLU A   4      44.309  22.892  26.426  0.00  0.00    +0.241 C 
ATOM     13  N   PHE A   5      44.473  21.707  26.991  0.00  0.00    -0.297 N 
ATOM     14  H   PHE A   5      44.577  21.645  28.024  0.00  0.00    +0.150 HD
ATOM     15  O   GLU A   4      44.219  23.052  25.208  0.00  0.00    -0.273 OA
BRANCH  12  16
ATOM     16  CA  GLU A   4      44.259  24.070  27.385  0.00  0.00    +0.149 C 
BRANCH  16  18
ATOM     17  C   MET A   3      46.105  25.321  26.458  0.00  0.00    +0.241 C 
ATOM     18  N   GLU A   4      44.809  25.254  26.748  0.00  0.00    -0.297 N 
ATOM     19  H   GLU A   4      44.186  26.054  26.517  0.00  0.00    +0.150 HD
ATOM     20  O   MET A   3      46.895  24.412  26.706  0.00  0.00    -0.273 OA
BRANCH  17  21
ATOM     21  CA  MET A   3      46.577  26.594  25.776  0.00  0.00    +0.149 C 
BRANCH  21  24
ATOM     22  C   VAL A   2      48.710  27.755  25.960  0.00  0.00    +0.241 C 
ATOM     23  O   VAL A   2      48.171  28.793  26.350  0.00  0.00    -0.273 OA
ATOM     24  N   MET A   3      48.031  26.649  25.669  0.00  0.00    -0.297 N 
ATOM     25  H   MET A   3      48.549  25.803  25.358  0.00  0.00    +0.150 HD
BRANCH  22  26
ATOM     26  CA  VAL A   2      50.221  27.688  25.780  0.00  0.00    +0.148 C 
BRANCH  26  28
ATOM     27  C   VAL A   1      50.596  28.591  23.546  0.00  0.00    +0.238 C 
ATOM     28  N   VAL A   2      50.584  28.762  24.867  0.00  0.00    -0.297 N 
ATOM     29  H   VAL A   2      50.842  29.691  25.258  0.00  0.00    +0.150 HD
ATOM     30  O   VAL A   1      50.334  27.519  23.001  0.00  0.00    -0.274 OA
BRANCH  27  31
ATOM     31  CA  VAL A   1      50.985  29.804  22.715  0.00  0.00    +0.145 C 
BRANCH  31  32
ATOM     32  CB  VAL A   1      49.839  30.112  21.736  0.00  0.00    +0.025 C 
ATOM     33  CG2 VAL A   1      48.572  30.543  22.469  0.00  0.00    +0.002 C 
ATOM     34  CG1 VAL A   1      50.320  31.197  20.782  0.00  0.00    +0.002 C 
ENDBRANCH  31  32
BRANCH  31  35
ATOM     35  N   VAL A   1      52.230  29.507  22.010  0.00  0.00    -0.238 NA
ATOM     36  H   VAL A   1      52.249  28.733  21.316  0.00  0.00    +0.142 HD
ENDBRANCH  31  35
ENDBRANCH  27  31
ENDBRANCH  26  28
BRANCH  26  37
ATOM     37  CB  VAL A   2      50.928  27.857  27.174  0.00  0.00    +0.027 C 
ATOM     38  CG2 VAL A   2      50.665  26.625  28.008  0.00  0.00    +0.002 C 
ATOM     39  CG1 VAL A   2      52.422  28.084  27.006  0.00  0.00    +0.002 C 
ENDBRANCH  26  37
ENDBRANCH  22  26
ENDBRANCH  21  24
BRANCH  21  40
ATOM     40  CB  MET A   3      45.967  26.646  24.403  0.00  0.00    +0.041 C 
BRANCH  40  41
ATOM     41  CG  MET A   3      46.487  27.812  23.588  0.00  0.00    +0.060 C 
BRANCH  41  42
ATOM     42  SD  MET A   3      45.830  27.755  21.933  0.00  0.00    -0.139 S 
ATOM     43  CE  MET A   3      44.234  28.515  22.192  0.00  0.00    +0.069 C 
ENDBRANCH  41  42
ENDBRANCH  40  41
ENDBRANCH  21  40
ENDBRANCH  17  21
ENDBRANCH  16  18
BRANCH  16  44
ATOM     44  CB  GLU A   4      42.783  24.304  27.844  0.00  0.00    +0.041 C 
BRANCH  44  45
ATOM     45  CG  GLU A   4      41.774  24.741  26.814  0.00  0.00    +0.116 C 
BRANCH  45  46
ATOM     46  CD  GLU A   4      40.356  24.767  27.358  0.00  0.00    +0.365 C 
ATOM     47  OE2 GLU A   4      39.991  23.864  28.144  0.00  0.00    -0.246 OA
ATOM     48  OE1 GLU A   4      39.602  25.690  26.986  0.00  0.00    -0.246 OA
ENDBRANCH  45  46
ENDBRANCH  44  45
ENDBRANCH  16  44
ENDBRANCH  12  16
ENDBRANCH  11  13
BRANCH  11  49
ATOM     49  CB  PHE A   5      45.518  19.483  26.820  0.00  0.00    +0.055 C 
BRANCH  49  50
ATOM     50  CG  PHE A   5      45.560  18.156  26.114  0.00  0.00    -0.020 A 
ATOM     51  CD2 PHE A   5      45.380  16.972  26.821  0.00  0.00    -0.004 A 
ATOM     52  CE2 PHE A   5      45.404  15.735  26.166  0.00  0.00    -0.000 A 
ATOM     53  CZ  PHE A   5      45.611  15.682  24.793  0.00  0.00    -0.000 A 
ATOM     54  CE1 PHE A   5      45.796  16.861  24.076  0.00  0.00    -0.000 A 
ATOM     55  CD1 PHE A   5      45.770  18.090  24.740  0.00  0.00    -0.004 A 
ENDBRANCH  49  50
ENDBRANCH  11  49
ENDBRANCH   7  11
ENDBRANCH   6   9
BRANCH   6  56
ATOM     56  CB  LEU A   6      40.337  20.027  23.943  0.00  0.00    +0.029 C 
BRANCH  56  57
ATOM     57  CG  LEU A   6      39.781  21.300  24.628  0.00  0.00    +0.002 C 
ATOM     58  CD2 LEU A   6      40.720  22.471  24.400  0.00  0.00    +0.000 C 
ATOM     59  CD1 LEU A   6      38.414  21.609  24.069  0.00  0.00    +0.000 C 
ENDBRANCH  56  57
ENDBRANCH   6  56
ENDBRANCH   2   6
ENDBRANCH   1   3
BRANCH   1  60
ATOM     60  C   GLU A   7      40.252  14.809  23.748  0.00  0.00    +0.241 C 
ATOM     61  N   GLY A   8      39.077  15.397  23.559  0.00  0.00    -0.295 N 
ATOM     62  H   GLY A   8      38.808  16.208  24.152  0.00  0.00    +0.150 HD
ATOM     63  O   GLU A   7      40.641  13.862  23.067  0.00  0.00    -0.273 OA
BRANCH  61  64
ATOM     64  CA  GLY A   8      38.162  14.924  22.536  0.00  0.00    +0.176 C 
BRANCH  64  65
ATOM     65  C   GLY A   8      38.545  15.135  21.083  0.00  0.00    +0.243 C 
ATOM     66  N   GLY A   9      39.583  15.922  20.820  0.00  0.00    -0.295 N 
ATOM     67  H   GLY A   9      40.105  16.371  21.599  0.00  0.00    +0.150 HD
ATOM     68  O   GLY A   8      37.895  14.587  20.198  0.00  0.00    -0.273 OA
BRANCH  66  69
ATOM     69  CA  GLY A   9      39.989  16.155  19.444  0.00  0.00    +0.176 C 
BRANCH  69  70
ATOM     70  C   GLY A   9      39.098  17.143  18.704  0.00  0.00    +0.243 C 
ATOM     71  O   GLY A   9      38.276  17.824  19.323  0.00  0.00    -0.273 OA
ATOM     72  N   ALA A  10      39.266  17.220  17.383  0.00  0.00    -0.297 N 
ATOM     73  H   ALA A  10      39.979  16.612  16.931  0.00  0.00    +0.150 HD
BRANCH  72  74
ATOM     74  CA  ALA A  10      38.483  18.129  16.549  0.00  0.00    +0.149 C 
ATOM     75  CB  ALA A  10      39.368  18.747  15.467  0.00  0.00    +0.031 C 
BRANCH  74  76
ATOM     76  C   ALA A  10      37.280  17.444  15.904  0.00  0.00    +0.241 C 
ATOM     77  O   ALA A  10      37.266  16.232  15.709  0.00  0.00    -0.273 OA
ATOM     78  N   LEU A  11      36.274  18.240  15.567  0.00  0.00    -0.297 N 
ATOM     79  H   LEU A  11      36.357  19.261  15.746  0.00  0.00    +0.150 HD
BRANCH  78  80
ATOM     80  CA  LEU A  11      35.057  17.728  14.955  0.00  0.00    +0.149 C 
BRANCH  80  81
ATOM     81  C   LEU A  11      35.326  17.111  13.577  0.00  0.00    +0.241 C 
ATOM     82  O   LEU A  11      34.578  16.253  13.112  0.00  0.00    -0.273 OA
ATOM     83  N   THR A  12      36.402  17.545  12.933  0.00  0.00    -0.295 N 
ATOM     84  H   THR A  12      37.002  18.269  13.376  0.00  0.00    +0.150 HD
BRANCH  83  85
ATOM     85  CA  THR A  12      36.760  17.029  11.620  0.00  0.00    +0.176 C 
BRANCH  85  86
ATOM     86  C   THR A  12      36.858  15.507  11.599  0.00  0.00    +0.243 C 
ATOM     87  N   ASP A  13      37.588  14.954  12.563  0.00  0.00    -0.296 N 
ATOM     88  H   ASP A  13      38.033  15.568  13.274  0.00  0.00    +0.150 HD
ATOM     89  O   THR A  12      36.280  14.850  10.730  0.00  0.00    -0.273 OA
BRANCH  87  90
ATOM     90  CA  ASP A  13      37.783  13.509  12.652  0.00  0.00    +0.160 C 
BRANCH  90  91
ATOM     91  C   ASP A  13      36.471  12.752  12.837  0.00  0.00    +0.241 C 
ATOM     92  N   ILE A  14      35.474  13.429  13.396  0.00  0.00    -0.298 N 
ATOM     93  H   ILE A  14      35.625  14.420  13.674  0.00  0.00    +0.150 HD
ATOM     94  O   ASP A  13      36.363  11.580  12.476  0.00  0.00    -0.273 OA
BRANCH  92  95
ATOM     95  CA  ILE A  14      34.175  12.815  13.628  0.00  0.00    +0.137 C 
BRANCH  95  96
ATOM     96  CB  ILE A  14      33.372  13.562  14.753  0.00  0.00    +0.026 C 
ATOM     97  CG2 ILE A  14      31.910  13.119  14.756  0.00  0.00    +0.002 C 
BRANCH  96  98
ATOM     98  CG1 ILE A  14      34.051  13.292  16.118  0.00  0.00    +0.002 C 
ATOM     99  CD1 ILE A  14      33.521  14.155  17.246  0.00  0.00    +0.000 C 
ENDBRANCH  96  98
ENDBRANCH  95  96
BRANCH  95 100
ATOM    100  C   ILE A  14      33.320  12.817  12.371  0.00  0.00    +0.227 C 
ATOM    101  O   ILE A  14      32.819  11.772  11.958  0.00  0.00    -0.286 OA
ENDBRANCH  95 100
ENDBRANCH  92  95
ENDBRANCH  90  91
BRANCH  90 102
ATOM    102  CB  ASP A  13      38.758  13.167  13.829  0.00  0.00    +0.143 C 
BRANCH 102 103
ATOM    103  CG  ASP A  13      39.092  11.685  13.715  0.00  0.00    +0.367 C 
ATOM    104  OD2 ASP A  13      38.767  10.916  14.646  0.00  0.00    -0.246 OA
ATOM    105  OD1 ASP A  13      39.679  11.292  12.685  0.00  0.00    -0.246 OA
ENDBRANCH 102 103
ENDBRANCH  90 102
ENDBRANCH  87  90
ENDBRANCH  85  86
BRANCH  85 106
ATOM    106  CB  THR A  12      38.099  17.582  11.162  0.00  0.00    +0.137 C 
ATOM    107  CG2 THR A  12      38.440  17.094   9.748  0.00  0.00    +0.034 C 
BRANCH 106 108
ATOM    108  OG1 THR A  12      38.039  19.012  11.169  0.00  0.00    -0.382 OA
ATOM    109  HG1 THR A  12      37.324  19.314  10.554  0.00  0.00    +0.210 HD
ENDBRANCH 106 108
ENDBRANCH  85 106
ENDBRANCH  83  85
ENDBRANCH  80  81
BRANCH  80 110
ATOM    110  CB  LEU A  11      34.024  18.861  14.836  0.00  0.00    +0.029 C 
BRANCH 110 111
ATOM    111  CG  LEU A  11      32.638  18.493  14.334  0.00  0.00    +0.002 C 
ATOM    112  CD2 LEU A  11      31.995  17.497  15.298  0.00  0.00    +0.000 C 
ATOM    113  CD1 LEU A  11      31.785  19.760  14.208  0.00  0.00    +0.000 C 
ENDBRANCH 110 111
ENDBRANCH  80 110
ENDBRANCH  78  80
ENDBRANCH  74  76
ENDBRANCH  72  74
ENDBRANCH  69  70
ENDBRANCH  66  69
ENDBRANCH  64  65
ENDBRANCH  61  64
ENDBRANCH   1  60
BRANCH   1 114
ATOM    114  CB  GLU A   7      40.866  14.540  26.161  0.00  0.00    +0.041 C 
BRANCH 114 115
ATOM    115  CG  GLU A   7      41.662  15.101  27.329  0.00  0.00    +0.116 C 
BRANCH 115 116
ATOM    116  CD  GLU A   7      40.882  16.121  28.150  0.00  0.00    +0.365 C 
ATOM    117  OE2 GLU A   7      41.163  16.238  29.362  0.00  0.00    -0.246 OA
ATOM    118  OE1 GLU A   7      40.001  16.816  27.592  0.00  0.00    -0.246 OA
ENDBRANCH 115 116
ENDBRANCH 114 115
ENDBRANCH   1 114
TORSDOF 51
REMARK  Name = ../refined-set-2016/4app/4app_pocket.pdb
REMARK  233 active torsions:
REMARK  status: ('A' for Active; 'I' for Inactive)
REMARK    1  A    between atoms: _1  and  _3
REMARK    2  A    between atoms: _3  and  _4
REMARK    3  A    between atoms: _3  and  _6
REMARK    4  A    between atoms: _6  and  _7
REMARK    5  A    between atoms: _10  and  _12
REMARK    6  A    between atoms: _12  and  _13
REMARK    7  A    between atoms: _15  and  _17
REMARK    8  A    between atoms: _17  and  _18
REMARK    9  A    between atoms: _17  and  _20
REMARK   10  A    between atoms: _20  and  _21
REMARK   11  A    between atoms: _21  and  _22
REMARK   12  A    between atoms: _25  and  _27
REMARK   13  A    between atoms: _27  and  _28
REMARK   14  A    between atoms: _30  and  _32
REMARK   15  A    between atoms: _32  and  _33
REMARK   16  A    between atoms: _32  and  _35
REMARK   17  A    between atoms: _35  and  _36
REMARK   18  A    between atoms: _38  and  _40
REMARK   19  A    between atoms: _40  and  _41
REMARK   20  A    between atoms: _40  and  _43
REMARK   21  A    between atoms: _43  and  _44
REMARK   22  A    between atoms: _47  and  _49
REMARK   23  A    between atoms: _49  and  _50
REMARK   24  A    between atoms: _52  and  _54
REMARK   25  A    between atoms: _54  and  _55
REMARK   26  A    between atoms: _54  and  _57
REMARK   27  A    between atoms: _57  and  _58
REMARK   28  A    between atoms: _61  and  _63
REMARK   29  A    between atoms: _63  and  _64
REMARK   30  A    between atoms: _63  and  _66
REMARK   31  A    between atoms: _69  and  _71
REMARK   32  A    between atoms: _71  and  _72
REMARK   33  A    between atoms: _71  and  _74
REMARK   34  A    between atoms: _76  and  _78
REMARK   35  A    between atoms: _78  and  _79
REMARK   36  A    between atoms: _78  and  _81
REMARK   37  A    between atoms: _81  and  _82
REMARK   38  A    between atoms: _85  and  _87
REMARK   39  A    between atoms: _87  and  _88
REMARK   40  A    between atoms: _87  and  _90
REMARK   41  A    between atoms: _90  and  _91
REMARK   42  A    between atoms: _94  and  _96
REMARK   43  A    between atoms: _96  and  _97
REMARK   44  A    between atoms: _96  and  _99
REMARK   45  A    between atoms: _102  and  _104
REMARK   46  A    between atoms: _104  and  _105
REMARK   47  A    between atoms: _108  and  _110
REMARK   48  A    between atoms: _110  and  _111
REMARK   49  A    between atoms: _110  and  _113
REMARK   50  A    between atoms: _116  and  _118
REMARK   51  A    between atoms: _118  and  _119
REMARK   52  A    between atoms: _118  and  _121
REMARK   53  A    between atoms: _121  and  _122
REMARK   54  A    between atoms: _122  and  _123
REMARK   55  A    between atoms: _123  and  _124
REMARK   56  A    between atoms: _124  and  _125
REMARK   57  A    between atoms: _129  and  _131
REMARK   58  A    between atoms: _131  and  _132
REMARK   59  A    between atoms: _131  and  _134
REMARK   60  A    between atoms: _134  and  _135
REMARK   61  A    between atoms: _135  and  _136
REMARK   62  A    between atoms: _136  and  _137
REMARK   63  A    between atoms: _137  and  _138
REMARK   64  A    between atoms: _142  and  _144
REMARK   65  A    between atoms: _144  and  _145
REMARK   66  A    between atoms: _144  and  _147
REMARK   67  A    between atoms: _147  and  _148
REMARK   68  A    between atoms: _148  and  _149
REMARK   69  A    between atoms: _151  and  _153
REMARK   70  A    between atoms: _153  and  _154
REMARK   71  A    between atoms: _153  and  _156
REMARK   72  A    between atoms: _156  and  _157
REMARK   73  A    between atoms: _160  and  _162
REMARK   74  A    between atoms: _162  and  _163
REMARK   75  A    between atoms: _162  and  _165
REMARK   76  A    between atoms: _165  and  _166
REMARK   77  A    between atoms: _166  and  _167
REMARK   78  A    between atoms: _172  and  _174
REMARK   79  A    between atoms: _174  and  _175
REMARK   80  A    between atoms: _174  and  _177
REMARK   81  A    between atoms: _177  and  _178
REMARK   82  A    between atoms: _178  and  _179
REMARK   83  A    between atoms: _182  and  _184
REMARK   84  A    between atoms: _184  and  _185
REMARK   85  A    between atoms: _184  and  _187
REMARK   86  A    between atoms: _190  and  _192
REMARK   87  A    between atoms: _192  and  _193
REMARK   88  A    between atoms: _192  and  _195
REMARK   89  A    between atoms: _195  and  _196
REMARK   90  A    between atoms: _196  and  _197
REMARK   91  A    between atoms: _200  and  _202
REMARK   92  A    between atoms: _202  and  _203
REMARK   93  A    between atoms: _202  and  _205
REMARK   94  A    between atoms: _205  and  _206
REMARK   95  A    between atoms: _206  and  _207
REMARK   96  A    between atoms: _209  and  _211
REMARK   97  A    between atoms: _211  and  _212
REMARK   98  A    between atoms: _211  and  _214
REMARK   99  A    between atoms: _214  and  _215
REMARK  100  A    between atoms: _218  and  _220
REMARK  101  A    between atoms: _220  and  _221
REMARK  102  A    between atoms: _220  and  _223
REMARK  103  A    between atoms: _226  and  _228
REMARK  104  A    between atoms: _228  and  _229
REMARK  105  A    between atoms: _228  and  _231
REMARK  106  A    between atoms: _234  and  _236
REMARK  107  A    between atoms: _236  and  _237
REMARK  108  A    between atoms: _236  and  _239
REMARK  109  A    between atoms: _239  and  _240
REMARK  110  A    between atoms: _240  and  _241
REMARK  111  A    between atoms: _243  and  _245
REMARK  112  A    between atoms: _245  and  _246
REMARK  113  A    between atoms: _245  and  _248
REMARK  114  A    between atoms: _248  and  _249
REMARK  115  A    between atoms: _249  and  _250
REMARK  116  A    between atoms: _253  and  _255
REMARK  117  A    between atoms: _255  and  _256
REMARK  118  A    between atoms: _255  and  _258
REMARK  119  A    between atoms: _258  and  _259
REMARK  120  A    between atoms: _265  and  _267
REMARK  121  A    between atoms: _267  and  _268
REMARK  122  A    between atoms: _267  and  _270
REMARK  123  A    between atoms: _270  and  _271
REMARK  124  A    between atoms: _274  and  _276
REMARK  125  A    between atoms: _276  and  _277
REMARK  126  A    between atoms: _276  and  _279
REMARK  127  A    between atoms: _279  and  _280
REMARK  128  A    between atoms: _280  and  _281
REMARK  129  A    between atoms: _284  and  _286
REMARK  130  A    between atoms: _286  and  _287
REMARK  131  A    between atoms: _289  and  _291
REMARK  132  A    between atoms: _291  and  _292
REMARK  133  A    between atoms: _294  and  _296
REMARK  134  A    between atoms: _296  and  _297
REMARK  135  A    between atoms: _300  and  _302
REMARK  136  A    between atoms: _302  and  _303
REMARK  137  A    between atoms: _302  and  _305
REMARK  138  A    between atoms: _305  and  _306
REMARK  139  A    between atoms: _309  and  _311
REMARK  140  A    between atoms: _311  and  _312
REMARK  141  A    between atoms: _311  and  _314
REMARK  142  A    between atoms: _314  and  _315
REMARK  143  A    between atoms: _318  and  _320
REMARK  144  A    between atoms: _320  and  _321
REMARK  145  A    between atoms: _320  and  _323
REMARK  146  A    between atoms: _323  and  _324
REMARK  147  A    between atoms: _327  and  _329
REMARK  148  A    between atoms: _329  and  _330
REMARK  149  A    between atoms: _329  and  _332
REMARK  150  A    between atoms: _332  and  _333
REMARK  151  A    between atoms: _336  and  _338
REMARK  152  A    between atoms: _338  and  _339
REMARK  153  A    between atoms: _338  and  _341
REMARK  154  A    between atoms: _341  and  _342
REMARK  155  A    between atoms: _345  and  _347
REMARK  156  A    between atoms: _347  and  _348
REMARK  157  A    between atoms: _347  and  _350
REMARK  158  A    between atoms: _350  and  _351
REMARK  159  A    between atoms: _356  and  _358
REMARK  160  A    between atoms: _358  and  _359
REMARK  161  A    between atoms: _358  and  _361
REMARK  162  A    between atoms: _361  and  _362
REMARK  163  A    between atoms: _365  and  _367
REMARK  164  A    between atoms: _367  and  _368
REMARK  165  A    between atoms: _367  and  _370
REMARK  166  A    between atoms: _370  and  _371
REMARK  167  A    between atoms: _371  and  _372
REMARK  168  A    between atoms: _372  and  _373
REMARK  169  A    between atoms: _373  and  _374
REMARK  170  A    between atoms: _378  and  _380
REMARK  171  A    between atoms: _380  and  _381
REMARK  172  A    between atoms: _380  and  _383
REMARK  173  A    between atoms: _383  and  _384
REMARK  174  A    between atoms: _386  and  _388
REMARK  175  A    between atoms: _388  and  _389
REMARK  176  A    between atoms: _388  and  _391
REMARK  177  A    between atoms: _391  and  _392
REMARK  178  A    between atoms: _395  and  _397
REMARK  179  A    between atoms: _397  and  _398
REMARK  180  A    between atoms: _397  and  _400
REMARK  181  A    between atoms: _400  and  _401
REMARK  182  A    between atoms: _403  and  _405
REMARK  183  A    between atoms: _405  and  _406
REMARK  184  A    between atoms: _405  and  _408
REMARK  185  A    between atoms: _408  and  _409
REMARK  186  A    between atoms: _412  and  _414
REMARK  187  A    between atoms: _414  and  _415
REMARK  188  A    between atoms: _414  and  _417
REMARK  189  A    between atoms: _417  and  _418
REMARK  190  A    between atoms: _421  and  _423
REMARK  191  A    between atoms: _423  and  _424
REMARK  192  A    between atoms: _423  and  _426
REMARK  193  A    between atoms: _426  and  _427
REMARK  194  A    between atoms: _430  and  _432
REMARK  195  A    between atoms: _432  and  _433
REMARK  196  A    between atoms: _432  and  _435
REMARK  197  A    between atoms: _435  and  _436
REMARK  198  A    between atoms: _439  and  _441
REMARK  199  A    between atoms: _441  and  _442
REMARK  200  A    between atoms: _441  and  _444
REMARK  201  A    between atoms: _444  and  _445
REMARK  202  A    between atoms: _447  and  _449
REMARK  203  A    between atoms: _449  and  _450
REMARK  204  A    between atoms: _449  and  _452
REMARK  205  A    between atoms: _452  and  _453
REMARK  206  A    between atoms: _456  and  _458
REMARK  207  A    between atoms: _458  and  _459
REMARK  208  A    between atoms: _458  and  _461
REMARK  209  A    between atoms: _461  and  _462
REMARK  210  A    between atoms: _468  and  _470
REMARK  211  A    between atoms: _470  and  _471
REMARK  212  A    between atoms: _473  and  _475
REMARK  213  A    between atoms: _475  and  _476
REMARK  214  A    between atoms: _475  and  _478
REMARK  215  A    between atoms: _478  and  _479
REMARK  216  A    between atoms: _479  and  _480
REMARK  217  A    between atoms: _482  and  _484
REMARK  218  A    between atoms: _484  and  _485
REMARK  219  A    between atoms: _484  and  _487
REMARK  220  A    between atoms: _487  and  _488
REMARK  221  A    between atoms: _488  and  _489
REMARK  222  A    between atoms: _489  and  _490
REMARK  223  A    between atoms: _499  and  _501
REMARK  224  A    between atoms: _501  and  _502
REMARK  225  A    between atoms: _501  and  _504
REMARK  226  A    between atoms: _504  and  _505
REMARK  227  A    between atoms: _505  and  _506
REMARK  228  A    between atoms: _511  and  _513
REMARK  229  A    between atoms: _513  and  _514
REMARK  230  A    between atoms: _513  and  _516
REMARK  231  A    between atoms: _516  and  _517
REMARK  232  A    between atoms: _517  and  _518
REMARK  233  A    between atoms: _518  and  _519
REMARK                            x       y       z     vdW  Elec       q    Type
REMARK                         _______ _______ _______ _____ _____    ______ ____
ROOT
ATOM      1  C   THR A   1      34.790  10.691   8.567  0.00  0.00    +0.241 C 
ATOM      2  N   HIS A   2      34.401  10.246   9.759  0.00  0.00    -0.298 N 
ATOM      3  H   HIS A   2      34.085  10.922  10.484  0.00  0.00    +0.150 HD
ATOM      4  O   THR A   1      35.155   9.935   7.674  0.00  0.00    -0.274 OA
ENDROOT
BRANCH   1   5
ATOM      5  CA  THR A   1      34.759  12.201   8.325  0.00  0.00    +0.172 C 
BRANCH   5   6
ATOM      6  N   THR A   1      34.169  12.983   9.408  0.00  0.00    -0.236 NA
ATOM      7  H   THR A   1      34.771  13.322  10.186  0.00  0.00    +0.142 HD
ENDBRANCH   5   6
BRANCH   5   8
ATOM      8  CB  THR A   1      36.246  12.686   7.983  0.00  0.00    +0.135 C 
ATOM      9  CG2 THR A   1      36.259  14.131   7.507  0.00  0.00    +0.034 C 
BRANCH   8  10
ATOM     10  OG1 THR A   1      37.076  12.562   9.142  0.00  0.00    -0.383 OA
ATOM     11  HG1 THR A   1      37.098  11.615   9.431  0.00  0.00    +0.210 HD
ENDBRANCH   8  10
ENDBRANCH   5   8
ENDBRANCH   1   5
BRANCH   2  12
ATOM     12  CA  HIS A   2      34.414   8.816  10.058  0.00  0.00    +0.143 C 
BRANCH  12  13
ATOM     13  C   HIS A   2      33.105   8.246  10.597  0.00  0.00    +0.227 C 
ATOM     14  O   HIS A   2      32.984   7.034  10.784  0.00  0.00    -0.286 OA
ENDBRANCH  12  13
BRANCH  12  15
ATOM     15  CB  HIS A   2      35.558   8.486  11.043  0.00  0.00    +0.075 C 
BRANCH  15  16
ATOM     16  CG  HIS A   2      36.923   8.762  10.493  0.00  0.00    +0.082 A 
ATOM     17  ND1 HIS A   2      37.498  10.015  10.519  0.00  0.00    -0.227 NA
ATOM     18  CE1 HIS A   2      38.670   9.973   9.912  0.00  0.00    +0.199 A 
ATOM     19  NE2 HIS A   2      38.878   8.737   9.496  0.00  0.00    -0.221 NA
ATOM     20  CD2 HIS A   2      37.802   7.958   9.849  0.00  0.00    +0.115 A 
ENDBRANCH  15  16
ENDBRANCH  12  15
ENDBRANCH   2  12
TORSDOF 8
REMARK  Name = ../refined-set-2016/4app/4app_pocket.pdb
REMARK  233 active torsions:
REMARK  status: ('A' for Active; 'I' for Inactive)
REMARK    1  A    between atoms: _1  and  _3
REMARK    2  A    between atoms: _3  and  _4
REMARK    3  A    between atoms: _3  and  _6
REMARK    4  A    between atoms: _6  and  _7
REMARK    5  A    between atoms: _10  and  _12
REMARK    6  A    between atoms: _12  and  _13
REMARK    7  A    between atoms: _15  and  _17
REMARK    8  A    between atoms: _17  and  _18
REMARK    9  A    between atoms: _17  and  _20
REMARK   10  A    between atoms: _20  and  _21
REMARK   11  A    between atoms: _21  and  _22
REMARK   12  A    between atoms: _25  and  _27
REMARK   13  A    between atoms: _27  and  _28
REMARK   14  A    between atoms: _30  and  _32
REMARK   15  A    between atoms: _32  and  _33
REMARK   16  A    between atoms: _32  and  _35
REMARK   17  A    between atoms: _35  and  _36
REMARK   18  A    between atoms: _38  and  _40
REMARK   19  A    between atoms: _40  and  _41
REMARK   20  A    between atoms: _40  and  _43
REMARK   21  A    between atoms: _43  and  _44
REMARK   22  A    between atoms: _47  and  _49
REMARK   23  A    between atoms: _49  and  _50
REMARK   24  A    between atoms: _52  and  _54
REMARK   25  A    between atoms: _54  and  _55
REMARK   26  A    between atoms: _54  and  _57
REMARK   27  A    between atoms: _57  and  _58
REMARK   28  A    between atoms: _61  and  _63
REMARK   29  A    between atoms: _63  and  _64
REMARK   30  A    between atoms: _63  and  _66
REMARK   31  A    between atoms: _69  and  _71
REMARK   32  A    between atoms: _71  and  _72
REMARK   33  A    between atoms: _71  and  _74
REMARK   34  A    between atoms: _76  and  _78
REMARK   35  A    between atoms: _78  and  _79
REMARK   36  A    between atoms: _78  and  _81
REMARK   37  A    between atoms: _81  and  _82
REMARK   38  A    between atoms: _85  and  _87
REMARK   39  A    between atoms: _87  and  _88
REMARK   40  A    between atoms: _87  and  _90
REMARK   41  A    between atoms: _90  and  _91
REMARK   42  A    between atoms: _94  and  _96
REMARK   43  A    between atoms: _96  and  _97
REMARK   44  A    between atoms: _96  and  _99
REMARK   45  A    between atoms: _102  and  _104
REMARK   46  A    between atoms: _104  and  _105
REMARK   47  A    between atoms: _108  and  _110
REMARK   48  A    between atoms: _110  and  _111
REMARK   49  A    between atoms: _110  and  _113
REMARK   50  A    between atoms: _116  and  _118
REMARK   51  A    between atoms: _118  and  _119
REMARK   52  A    between atoms: _118  and  _121
REMARK   53  A    between atoms: _121  and  _122
REMARK   54  A    between atoms: _122  and  _123
REMARK   55  A    between atoms: _123  and  _124
REMARK   56  A    between atoms: _124  and  _125
REMARK   57  A    between atoms: _129  and  _131
REMARK   58  A    between atoms: _131  and  _132
REMARK   59  A    between atoms: _131  and  _134
REMARK   60  A    between atoms: _134  and  _135
REMARK   61  A    between atoms: _135  and  _136
REMARK   62  A    between atoms: _136  and  _137
REMARK   63  A    between atoms: _137  and  _138
REMARK   64  A    between atoms: _142  and  _144
REMARK   65  A    between atoms: _144  and  _145
REMARK   66  A    between atoms: _144  and  _147
REMARK   67  A    between atoms: _147  and  _148
REMARK   68  A    between atoms: _148  and  _149
REMARK   69  A    between atoms: _151  and  _153
REMARK   70  A    between atoms: _153  and  _154
REMARK   71  A    between atoms: _153  and  _156
REMARK   72  A    between atoms: _156  and  _157
REMARK   73  A    between atoms: _160  and  _162
REMARK   74  A    between atoms: _162  and  _163
REMARK   75  A    between atoms: _162  and  _165
REMARK   76  A    between atoms: _165  and  _166
REMARK   77  A    between atoms: _166  and  _167
REMARK   78  A    between atoms: _172  and  _174
REMARK   79  A    between atoms: _174  and  _175
REMARK   80  A    between atoms: _174  and  _177
REMARK   81  A    between atoms: _177  and  _178
REMARK   82  A    between atoms: _178  and  _179
REMARK   83  A    between atoms: _182  and  _184
REMARK   84  A    between atoms: _184  and  _185
REMARK   85  A    between atoms: _184  and  _187
REMARK   86  A    between atoms: _190  and  _192
REMARK   87  A    between atoms: _192  and  _193
REMARK   88  A    between atoms: _192  and  _195
REMARK   89  A    between atoms: _195  and  _196
REMARK   90  A    between atoms: _196  and  _197
REMARK   91  A    between atoms: _200  and  _202
REMARK   92  A    between atoms: _202  and  _203
REMARK   93  A    between atoms: _202  and  _205
REMARK   94  A    between atoms: _205  and  _206
REMARK   95  A    between atoms: _206  and  _207
REMARK   96  A    between atoms: _209  and  _211
REMARK   97  A    between atoms: _211  and  _212
REMARK   98  A    between atoms: _211  and  _214
REMARK   99  A    between atoms: _214  and  _215
REMARK  100  A    between atoms: _218  and  _220
REMARK  101  A    between atoms: _220  and  _221
REMARK  102  A    between atoms: _220  and  _223
REMARK  103  A    between atoms: _226  and  _228
REMARK  104  A    between atoms: _228  and  _229
REMARK  105  A    between atoms: _228  and  _231
REMARK  106  A    between atoms: _234  and  _236
REMARK  107  A    between atoms: _236  and  _237
REMARK  108  A    between atoms: _236  and  _239
REMARK  109  A    between atoms: _239  and  _240
REMARK  110  A    between atoms: _240  and  _241
REMARK  111  A    between atoms: _243  and  _245
REMARK  112  A    between atoms: _245  and  _246
REMARK  113  A    between atoms: _245  and  _248
REMARK  114  A    between atoms: _248  and  _249
REMARK  115  A    between atoms: _249  and  _250
REMARK  116  A    between atoms: _253  and  _255
REMARK  117  A    between atoms: _255  and  _256
REMARK  118  A    between atoms: _255  and  _258
REMARK  119  A    between atoms: _258  and  _259
REMARK  120  A    between atoms: _265  and  _267
REMARK  121  A    between atoms: _267  and  _268
REMARK  122  A    between atoms: _267  and  _270
REMARK  123  A    between atoms: _270  and  _271
REMARK  124  A    between atoms: _274  and  _276
REMARK  125  A    between atoms: _276  and  _277
REMARK  126  A    between atoms: _276  and  _279
REMARK  127  A    between atoms: _279  and  _280
REMARK  128  A    between atoms: _280  and  _281
REMARK  129  A    between atoms: _284  and  _286
REMARK  130  A    between atoms: _286  and  _287
REMARK  131  A    between atoms: _289  and  _291
REMARK  132  A    between atoms: _291  and  _292
REMARK  133  A    between atoms: _294  and  _296
REMARK  134  A    between atoms: _296  and  _297
REMARK  135  A    between atoms: _300  and  _302
REMARK  136  A    between atoms: _302  and  _303
REMARK  137  A    between atoms: _302  and  _305
REMARK  138  A    between atoms: _305  and  _306
REMARK  139  A    between atoms: _309  and  _311
REMARK  140  A    between atoms: _311  and  _312
REMARK  141  A    between atoms: _311  and  _314
REMARK  142  A    between atoms: _314  and  _315
REMARK  143  A    between atoms: _318  and  _320
REMARK  144  A    between atoms: _320  and  _321
REMARK  145  A    between atoms: _320  and  _323
REMARK  146  A    between atoms: _323  and  _324
REMARK  147  A    between atoms: _327  and  _329
REMARK  148  A    between atoms: _329  and  _330
REMARK  149  A    between atoms: _329  and  _332
REMARK  150  A    between atoms: _332  and  _333
REMARK  151  A    between atoms: _336  and  _338
REMARK  152  A    between atoms: _338  and  _339
REMARK  153  A    between atoms: _338  and  _341
REMARK  154  A    between atoms: _341  and  _342
REMARK  155  A    between atoms: _345  and  _347
REMARK  156  A    between atoms: _347  and  _348
REMARK  157  A    between atoms: _347  and  _350
REMARK  158  A    between atoms: _350  and  _351
REMARK  159  A    between atoms: _356  and  _358
REMARK  160  A    between atoms: _358  and  _359
REMARK  161  A    between atoms: _358  and  _361
REMARK  162  A    between atoms: _361  and  _362
REMARK  163  A    between atoms: _365  and  _367
REMARK  164  A    between atoms: _367  and  _368
REMARK  165  A    between atoms: _367  and  _370
REMARK  166  A    between atoms: _370  and  _371
REMARK  167  A    between atoms: _371  and  _372
REMARK  168  A    between atoms: _372  and  _373
REMARK  169  A    between atoms: _373  and  _374
REMARK  170  A    between atoms: _378  and  _380
REMARK  171  A    between atoms: _380  and  _381
REMARK  172  A    between atoms: _380  and  _383
REMARK  173  A    between atoms: _383  and  _384
REMARK  174  A    between atoms: _386  and  _388
REMARK  175  A    between atoms: _388  and  _389
REMARK  176  A    between atoms: _388  and  _391
REMARK  177  A    between atoms: _391  and  _392
REMARK  178  A    between atoms: _395  and  _397
REMARK  179  A    between atoms: _397  and  _398
REMARK  180  A    between atoms: _397  and  _400
REMARK  181  A    between atoms: _400  and  _401
REMARK  182  A    between atoms: _403  and  _405
REMARK  183  A    between atoms: _405  and  _406
REMARK  184  A    between atoms: _405  and  _408
REMARK  185  A    between atoms: _408  and  _409
REMARK  186  A    between atoms: _412  and  _414
REMARK  187  A    between atoms: _414  and  _415
REMARK  188  A    between atoms: _414  and  _417
REMARK  189  A    between atoms: _417  and  _418
REMARK  190  A    between atoms: _421  and  _423
REMARK  191  A    between atoms: _423  and  _424
REMARK  192  A    between atoms: _423  and  _426
REMARK  193  A    between atoms: _426  and  _427
REMARK  194  A    between atoms: _430  and  _432
REMARK  195  A    between atoms: _432  and  _433
REMARK  196  A    between atoms: _432  and  _435
REMARK  197  A    between atoms: _435  and  _436
REMARK  198  A    between atoms: _439  and  _441
REMARK  199  A    between atoms: _441  and  _442
REMARK  200  A    between atoms: _441  and  _444
REMARK  201  A    between atoms: _444  and  _445
REMARK  202  A    between atoms: _447  and  _449
REMARK  203  A    between atoms: _449  and  _450
REMARK  204  A    between atoms: _449  and  _452
REMARK  205  A    between atoms: _452  and  _453
REMARK  206  A    between atoms: _456  and  _458
REMARK  207  A    between atoms: _458  and  _459
REMARK  208  A    between atoms: _458  and  _461
REMARK  209  A    between atoms: _461  and  _462
REMARK  210  A    between atoms: _468  and  _470
REMARK  211  A    between atoms: _470  and  _471
REMARK  212  A    between atoms: _473  and  _475
REMARK  213  A    between atoms: _475  and  _476
REMARK  214  A    between atoms: _475  and  _478
REMARK  215  A    between atoms: _478  and  _479
REMARK  216  A    between atoms: _479  and  _480
REMARK  217  A    between atoms: _482  and  _484
REMARK  218  A    between atoms: _484  and  _485
REMARK  219  A    between atoms: _484  and  _487
REMARK  220  A    between atoms: _487  and  _488
REMARK  221  A    between atoms: _488  and  _489
REMARK  222  A    between atoms: _489  and  _490
REMARK  223  A    between atoms: _499  and  _501
REMARK  224  A    between atoms: _501  and  _502
REMARK  225  A    between atoms: _501  and  _504
REMARK  226  A    between atoms: _504  and  _505
REMARK  227  A    between atoms: _505  and  _506
REMARK  228  A    between atoms: _511  and  _513
REMARK  229  A    between atoms: _513  and  _514
REMARK  230  A    between atoms: _513  and  _516
REMARK  231  A    between atoms: _516  and  _517
REMARK  232  A    between atoms: _517  and  _518
REMARK  233  A    between atoms: _518  and  _519
REMARK                            x       y       z     vdW  Elec       q    Type
REMARK                         _______ _______ _______ _____ _____    ______ ____
ROOT
ATOM      1  CA  ASP A   1      37.333  30.590  10.214  0.00  0.00    +0.144 C 
ENDROOT
BRANCH   1   2
ATOM      2  N   ASP A   1      36.811  31.878  10.661  0.00  0.00    -0.239 NA
ATOM      3  H   ASP A   1      36.468  31.988  11.637  0.00  0.00    +0.142 HD
ENDBRANCH   1   2
BRANCH   1   4
ATOM      4  C   ASP A   1      36.578  29.420  10.837  0.00  0.00    +0.225 C 
ATOM      5  O   ASP A   1      37.175  28.422  11.248  0.00  0.00    -0.287 OA
ENDBRANCH   1   4
BRANCH   1   6
ATOM      6  CB  ASP A   1      38.872  30.471  10.494  0.00  0.00    +0.139 C 
BRANCH   6   7
ATOM      7  CG  ASP A   1      39.503  29.367   9.627  0.00  0.00    +0.367 C 
ATOM      8  OD2 ASP A   1      40.594  28.876   9.981  0.00  0.00    -0.246 OA
ATOM      9  OD1 ASP A   1      38.918  29.001   8.583  0.00  0.00    -0.246 OA
ENDBRANCH   6   7
ENDBRANCH   1   6
TORSDOF 4
REMARK  Name = ../refined-set-2016/4app/4app_pocket.pdb
REMARK  233 active torsions:
REMARK  status: ('A' for Active; 'I' for Inactive)
REMARK    1  A    between atoms: _1  and  _3
REMARK    2  A    between atoms: _3  and  _4
REMARK    3  A    between atoms: _3  and  _6
REMARK    4  A    between atoms: _6  and  _7
REMARK    5  A    between atoms: _10  and  _12
REMARK    6  A    between atoms: _12  and  _13
REMARK    7  A    between atoms: _15  and  _17
REMARK    8  A    between atoms: _17  and  _18
REMARK    9  A    between atoms: _17  and  _20
REMARK   10  A    between atoms: _20  and  _21
REMARK   11  A    between atoms: _21  and  _22
REMARK   12  A    between atoms: _25  and  _27
REMARK   13  A    between atoms: _27  and  _28
REMARK   14  A    between atoms: _30  and  _32
REMARK   15  A    between atoms: _32  and  _33
REMARK   16  A    between atoms: _32  and  _35
REMARK   17  A    between atoms: _35  and  _36
REMARK   18  A    between atoms: _38  and  _40
REMARK   19  A    between atoms: _40  and  _41
REMARK   20  A    between atoms: _40  and  _43
REMARK   21  A    between atoms: _43  and  _44
REMARK   22  A    between atoms: _47  and  _49
REMARK   23  A    between atoms: _49  and  _50
REMARK   24  A    between atoms: _52  and  _54
REMARK   25  A    between atoms: _54  and  _55
REMARK   26  A    between atoms: _54  and  _57
REMARK   27  A    between atoms: _57  and  _58
REMARK   28  A    between atoms: _61  and  _63
REMARK   29  A    between atoms: _63  and  _64
REMARK   30  A    between atoms: _63  and  _66
REMARK   31  A    between atoms: _69  and  _71
REMARK   32  A    between atoms: _71  and  _72
REMARK   33  A    between atoms: _71  and  _74
REMARK   34  A    between atoms: _76  and  _78
REMARK   35  A    between atoms: _78  and  _79
REMARK   36  A    between atoms: _78  and  _81
REMARK   37  A    between atoms: _81  and  _82
REMARK   38  A    between atoms: _85  and  _87
REMARK   39  A    between atoms: _87  and  _88
REMARK   40  A    between atoms: _87  and  _90
REMARK   41  A    between atoms: _90  and  _91
REMARK   42  A    between atoms: _94  and  _96
REMARK   43  A    between atoms: _96  and  _97
REMARK   44  A    between atoms: _96  and  _99
REMARK   45  A    between atoms: _102  and  _104
REMARK   46  A    between atoms: _104  and  _105
REMARK   47  A    between atoms: _108  and  _110
REMARK   48  A    between atoms: _110  and  _111
REMARK   49  A    between atoms: _110  and  _113
REMARK   50  A    between atoms: _116  and  _118
REMARK   51  A    between atoms: _118  and  _119
REMARK   52  A    between atoms: _118  and  _121
REMARK   53  A    between atoms: _121  and  _122
REMARK   54  A    between atoms: _122  and  _123
REMARK   55  A    between atoms: _123  and  _124
REMARK   56  A    between atoms: _124  and  _125
REMARK   57  A    between atoms: _129  and  _131
REMARK   58  A    between atoms: _131  and  _132
REMARK   59  A    between atoms: _131  and  _134
REMARK   60  A    between atoms: _134  and  _135
REMARK   61  A    between atoms: _135  and  _136
REMARK   62  A    between atoms: _136  and  _137
REMARK   63  A    between atoms: _137  and  _138
REMARK   64  A    between atoms: _142  and  _144
REMARK   65  A    between atoms: _144  and  _145
REMARK   66  A    between atoms: _144  and  _147
REMARK   67  A    between atoms: _147  and  _148
REMARK   68  A    between atoms: _148  and  _149
REMARK   69  A    between atoms: _151  and  _153
REMARK   70  A    between atoms: _153  and  _154
REMARK   71  A    between atoms: _153  and  _156
REMARK   72  A    between atoms: _156  and  _157
REMARK   73  A    between atoms: _160  and  _162
REMARK   74  A    between atoms: _162  and  _163
REMARK   75  A    between atoms: _162  and  _165
REMARK   76  A    between atoms: _165  and  _166
REMARK   77  A    between atoms: _166  and  _167
REMARK   78  A    between atoms: _172  and  _174
REMARK   79  A    between atoms: _174  and  _175
REMARK   80  A    between atoms: _174  and  _177
REMARK   81  A    between atoms: _177  and  _178
REMARK   82  A    between atoms: _178  and  _179
REMARK   83  A    between atoms: _182  and  _184
REMARK   84  A    between atoms: _184  and  _185
REMARK   85  A    between atoms: _184  and  _187
REMARK   86  A    between atoms: _190  and  _192
REMARK   87  A    between atoms: _192  and  _193
REMARK   88  A    between atoms: _192  and  _195
REMARK   89  A    between atoms: _195  and  _196
REMARK   90  A    between atoms: _196  and  _197
REMARK   91  A    between atoms: _200  and  _202
REMARK   92  A    between atoms: _202  and  _203
REMARK   93  A    between atoms: _202  and  _205
REMARK   94  A    between atoms: _205  and  _206
REMARK   95  A    between atoms: _206  and  _207
REMARK   96  A    between atoms: _209  and  _211
REMARK   97  A    between atoms: _211  and  _212
REMARK   98  A    between atoms: _211  and  _214
REMARK   99  A    between atoms: _214  and  _215
REMARK  100  A    between atoms: _218  and  _220
REMARK  101  A    between atoms: _220  and  _221
REMARK  102  A    between atoms: _220  and  _223
REMARK  103  A    between atoms: _226  and  _228
REMARK  104  A    between atoms: _228  and  _229
REMARK  105  A    between atoms: _228  and  _231
REMARK  106  A    between atoms: _234  and  _236
REMARK  107  A    between atoms: _236  and  _237
REMARK  108  A    between atoms: _236  and  _239
REMARK  109  A    between atoms: _239  and  _240
REMARK  110  A    between atoms: _240  and  _241
REMARK  111  A    between atoms: _243  and  _245
REMARK  112  A    between atoms: _245  and  _246
REMARK  113  A    between atoms: _245  and  _248
REMARK  114  A    between atoms: _248  and  _249
REMARK  115  A    between atoms: _249  and  _250
REMARK  116  A    between atoms: _253  and  _255
REMARK  117  A    between atoms: _255  and  _256
REMARK  118  A    between atoms: _255  and  _258
REMARK  119  A    between atoms: _258  and  _259
REMARK  120  A    between atoms: _265  and  _267
REMARK  121  A    between atoms: _267  and  _268
REMARK  122  A    between atoms: _267  and  _270
REMARK  123  A    between atoms: _270  and  _271
REMARK  124  A    between atoms: _274  and  _276
REMARK  125  A    between atoms: _276  and  _277
REMARK  126  A    between atoms: _276  and  _279
REMARK  127  A    between atoms: _279  and  _280
REMARK  128  A    between atoms: _280  and  _281
REMARK  129  A    between atoms: _284  and  _286
REMARK  130  A    between atoms: _286  and  _287
REMARK  131  A    between atoms: _289  and  _291
REMARK  132  A    between atoms: _291  and  _292
REMARK  133  A    between atoms: _294  and  _296
REMARK  134  A    between atoms: _296  and  _297
REMARK  135  A    between atoms: _300  and  _302
REMARK  136  A    between atoms: _302  and  _303
REMARK  137  A    between atoms: _302  and  _305
REMARK  138  A    between atoms: _305  and  _306
REMARK  139  A    between atoms: _309  and  _311
REMARK  140  A    between atoms: _311  and  _312
REMARK  141  A    between atoms: _311  and  _314
REMARK  142  A    between atoms: _314  and  _315
REMARK  143  A    between atoms: _318  and  _320
REMARK  144  A    between atoms: _320  and  _321
REMARK  145  A    between atoms: _320  and  _323
REMARK  146  A    between atoms: _323  and  _324
REMARK  147  A    between atoms: _327  and  _329
REMARK  148  A    between atoms: _329  and  _330
REMARK  149  A    between atoms: _329  and  _332
REMARK  150  A    between atoms: _332  and  _333
REMARK  151  A    between atoms: _336  and  _338
REMARK  152  A    between atoms: _338  and  _339
REMARK  153  A    between atoms: _338  and  _341
REMARK  154  A    between atoms: _341  and  _342
REMARK  155  A    between atoms: _345  and  _347
REMARK  156  A    between atoms: _347  and  _348
REMARK  157  A    between atoms: _347  and  _350
REMARK  158  A    between atoms: _350  and  _351
REMARK  159  A    between atoms: _356  and  _358
REMARK  160  A    between atoms: _358  and  _359
REMARK  161  A    between atoms: _358  and  _361
REMARK  162  A    between atoms: _361  and  _362
REMARK  163  A    between atoms: _365  and  _367
REMARK  164  A    between atoms: _367  and  _368
REMARK  165  A    between atoms: _367  and  _370
REMARK  166  A    between atoms: _370  and  _371
REMARK  167  A    between atoms: _371  and  _372
REMARK  168  A    between atoms: _372  and  _373
REMARK  169  A    between atoms: _373  and  _374
REMARK  170  A    between atoms: _378  and  _380
REMARK  171  A    between atoms: _380  and  _381
REMARK  172  A    between atoms: _380  and  _383
REMARK  173  A    between atoms: _383  and  _384
REMARK  174  A    between atoms: _386  and  _388
REMARK  175  A    between atoms: _388  and  _389
REMARK  176  A    between atoms: _388  and  _391
REMARK  177  A    between atoms: _391  and  _392
REMARK  178  A    between atoms: _395  and  _397
REMARK  179  A    between atoms: _397  and  _398
REMARK  180  A    between atoms: _397  and  _400
REMARK  181  A    between atoms: _400  and  _401
REMARK  182  A    between atoms: _403  and  _405
REMARK  183  A    between atoms: _405  and  _406
REMARK  184  A    between atoms: _405  and  _408
REMARK  185  A    between atoms: _408  and  _409
REMARK  186  A    between atoms: _412  and  _414
REMARK  187  A    between atoms: _414  and  _415
REMARK  188  A    between atoms: _414  and  _417
REMARK  189  A    between atoms: _417  and  _418
REMARK  190  A    between atoms: _421  and  _423
REMARK  191  A    between atoms: _423  and  _424
REMARK  192  A    between atoms: _423  and  _426
REMARK  193  A    between atoms: _426  and  _427
REMARK  194  A    between atoms: _430  and  _432
REMARK  195  A    between atoms: _432  and  _433
REMARK  196  A    between atoms: _432  and  _435
REMARK  197  A    between atoms: _435  and  _436
REMARK  198  A    between atoms: _439  and  _441
REMARK  199  A    between atoms: _441  and  _442
REMARK  200  A    between atoms: _441  and  _444
REMARK  201  A    between atoms: _444  and  _445
REMARK  202  A    between atoms: _447  and  _449
REMARK  203  A    between atoms: _449  and  _450
REMARK  204  A    between atoms: _449  and  _452
REMARK  205  A    between atoms: _452  and  _453
REMARK  206  A    between atoms: _456  and  _458
REMARK  207  A    between atoms: _458  and  _459
REMARK  208  A    between atoms: _458  and  _461
REMARK  209  A    between atoms: _461  and  _462
REMARK  210  A    between atoms: _468  and  _470
REMARK  211  A    between atoms: _470  and  _471
REMARK  212  A    between atoms: _473  and  _475
REMARK  213  A    between atoms: _475  and  _476
REMARK  214  A    between atoms: _475  and  _478
REMARK  215  A    between atoms: _478  and  _479
REMARK  216  A    between atoms: _479  and  _480
REMARK  217  A    between atoms: _482  and  _484
REMARK  218  A    between atoms: _484  and  _485
REMARK  219  A    between atoms: _484  and  _487
REMARK  220  A    between atoms: _487  and  _488
REMARK  221  A    between atoms: _488  and  _489
REMARK  222  A    between atoms: _489  and  _490
REMARK  223  A    between atoms: _499  and  _501
REMARK  224  A    between atoms: _501  and  _502
REMARK  225  A    between atoms: _501  and  _504
REMARK  226  A    between atoms: _504  and  _505
REMARK  227  A    between atoms: _505  and  _506
REMARK  228  A    between atoms: _511  and  _513
REMARK  229  A    between atoms: _513  and  _514
REMARK  230  A    between atoms: _513  and  _516
REMARK  231  A    between atoms: _516  and  _517
REMARK  232  A    between atoms: _517  and  _518
REMARK  233  A    between atoms: _518  and  _519
REMARK                            x       y       z     vdW  Elec       q    Type
REMARK                         _______ _______ _______ _____ _____    ______ ____
ROOT
ATOM      1  CA  SER A   4      38.168  24.780  14.468  0.00  0.00    +0.178 C 
ENDROOT
BRANCH   1   4
ATOM      2  C   ASP A   3      38.827  22.679  13.423  0.00  0.00    +0.241 C 
ATOM      3  O   ASP A   3      39.653  22.433  14.301  0.00  0.00    -0.273 OA
ATOM      4  N   SER A   4      38.068  23.772  13.422  0.00  0.00    -0.295 N 
ATOM      5  H   SER A   4      37.383  23.910  12.652  0.00  0.00    +0.150 HD
BRANCH   2   6
ATOM      6  CA  ASP A   3      38.639  21.726  12.249  0.00  0.00    +0.160 C 
BRANCH   6   9
ATOM      7  C   SER A   2      36.222  21.374  12.493  0.00  0.00    +0.243 C 
ATOM      8  O   SER A   2      36.334  21.048  13.677  0.00  0.00    -0.273 OA
ATOM      9  N   ASP A   3      37.264  21.716  11.734  0.00  0.00    -0.296 N 
ATOM     10  H   ASP A   3      37.097  21.985  10.743  0.00  0.00    +0.150 HD
BRANCH   7  11
ATOM     11  CA  SER A   2      34.838  21.403  11.831  0.00  0.00    +0.178 C 
BRANCH  11  14
ATOM     12  C   LYS A   1      34.909  23.769  11.282  0.00  0.00    +0.238 C 
ATOM     13  O   LYS A   1      35.365  24.051  12.391  0.00  0.00    -0.274 OA
ATOM     14  N   SER A   2      34.638  22.521  10.913  0.00  0.00    -0.295 N 
ATOM     15  H   SER A   2      34.278  22.338   9.955  0.00  0.00    +0.150 HD
BRANCH  12  16
ATOM     16  CA  LYS A   1      34.639  24.869  10.261  0.00  0.00    +0.145 C 
BRANCH  16  17
ATOM     17  N   LYS A   1      34.627  26.124  11.013  0.00  0.00    -0.238 NA
ATOM     18  H   LYS A   1      34.833  26.087  12.032  0.00  0.00    +0.142 HD
ENDBRANCH  16  17
BRANCH  16  19
ATOM     19  CB  LYS A   1      35.775  24.878   9.139  0.00  0.00    +0.026 C 
BRANCH  19  20
ATOM     20  CG  LYS A   1      37.201  25.022   9.661  0.00  0.00    -0.000 C 
BRANCH  20  21
ATOM     21  CD  LYS A   1      38.239  25.135   8.541  0.00  0.00    -0.024 C 
BRANCH  21  22
ATOM     22  CE  LYS A   1      39.661  25.262   9.083  0.00  0.00    -0.086 C 
BRANCH  22  23
ATOM     23  NZ  LYS A   1      40.686  25.445   8.020  0.00  0.00    +0.380 N 
ATOM     24  HZ1 LYS A   1      41.626  25.524   8.457  0.00  0.00    -0.089 HD
ATOM     25  HZ2 LYS A   1      40.477  26.312   7.484  0.00  0.00    -0.089 HD
ATOM     26  HZ3 LYS A   1      40.668  24.627   7.378  0.00  0.00    -0.089 HD
ENDBRANCH  22  23
ENDBRANCH  21  22
ENDBRANCH  20  21
ENDBRANCH  19  20
ENDBRANCH  16  19
ENDBRANCH  12  16
ENDBRANCH  11  14
BRANCH  11  27
ATOM     27  CB  SER A   2      34.569  20.040  11.099  0.00  0.00    +0.166 C 
BRANCH  27  28
ATOM     28  OG  SER A   2      35.530  19.805  10.092  0.00  0.00    -0.380 OA
ATOM     29  H   SER A   2      36.432  19.774  10.499  0.00  0.00    +0.211 HD
ENDBRANCH  27  28
ENDBRANCH  11  27
ENDBRANCH   7  11
ENDBRANCH   6   9
BRANCH   6  30
ATOM     30  CB  ASP A   3      39.619  22.145  11.168  0.00  0.00    +0.143 C 
BRANCH  30  31
ATOM     31  CG  ASP A   3      39.481  21.426   9.856  0.00  0.00    +0.367 C 
ATOM     32  OD2 ASP A   3      40.442  20.729   9.468  0.00  0.00    -0.246 OA
ATOM     33  OD1 ASP A   3      38.414  21.560   9.217  0.00  0.00    -0.246 OA
ENDBRANCH  30  31
ENDBRANCH   6  30
ENDBRANCH   2   6
ENDBRANCH   1   4
BRANCH   1  34
ATOM     34  C   SER A   4      37.429  24.414  15.749  0.00  0.00    +0.243 C 
ATOM     35  O   SER A   4      37.541  25.116  16.755  0.00  0.00    -0.273 OA
ATOM     36  N   ILE A   5      36.685  23.314  15.716  0.00  0.00    -0.297 N 
ATOM     37  H   ILE A   5      36.651  22.749  14.844  0.00  0.00    +0.150 HD
BRANCH  36  38
ATOM     38  CA  ILE A   5      35.914  22.882  16.879  0.00  0.00    +0.149 C 
BRANCH  38  39
ATOM     39  C   ILE A   5      36.579  21.734  17.635  0.00  0.00    +0.241 C 
ATOM     40  N   LEU A   6      36.857  21.959  18.917  0.00  0.00    -0.297 N 
ATOM     41  H   LEU A   6      36.613  22.880  19.333  0.00  0.00    +0.150 HD
ATOM     42  O   ILE A   5      36.826  20.665  17.070  0.00  0.00    -0.273 OA
BRANCH  40  43
ATOM     43  CA  LEU A   6      37.496  20.947  19.756  0.00  0.00    +0.149 C 
BRANCH  43  44
ATOM     44  C   LEU A   6      36.555  20.440  20.843  0.00  0.00    +0.241 C 
ATOM     45  N   LEU A   7      36.834  19.247  21.357  0.00  0.00    -0.298 N 
ATOM     46  H   LEU A   7      37.672  18.732  21.019  0.00  0.00    +0.150 HD
ATOM     47  O   LEU A   6      35.601  21.121  21.213  0.00  0.00    -0.273 OA
BRANCH  45  48
ATOM     48  CA  LEU A   7      35.993  18.642  22.383  0.00  0.00    +0.137 C 
BRANCH  48  49
ATOM     49  C   LEU A   7      36.755  18.236  23.645  0.00  0.00    +0.227 C 
ATOM     50  O   LEU A   7      37.897  17.778  23.571  0.00  0.00    -0.286 OA
ENDBRANCH  48  49
BRANCH  48  51
ATOM     51  CB  LEU A   7      35.303  17.392  21.809  0.00  0.00    +0.028 C 
BRANCH  51  52
ATOM     52  CG  LEU A   7      34.550  17.583  20.490  0.00  0.00    +0.002 C 
ATOM     53  CD2 LEU A   7      33.409  18.559  20.694  0.00  0.00    +0.000 C 
ATOM     54  CD1 LEU A   7      34.041  16.240  19.994  0.00  0.00    +0.000 C 
ENDBRANCH  51  52
ENDBRANCH  48  51
ENDBRANCH  45  48
ENDBRANCH  43  44
BRANCH  43  55
ATOM     55  CB  LEU A   6      38.806  21.522  20.401  0.00  0.00    +0.029 C 
BRANCH  55  56
ATOM     56  CG  LEU A   6      39.892  21.919  19.383  0.00  0.00    +0.002 C 
ATOM     57  CD2 LEU A   6      41.154  22.398  20.105  0.00  0.00    +0.000 C 
ATOM     58  CD1 LEU A   6      40.209  20.724  18.509  0.00  0.00    +0.000 C 
ENDBRANCH  55  56
ENDBRANCH  43  55
ENDBRANCH  40  43
ENDBRANCH  38  39
BRANCH  38  59
ATOM     59  CB  ILE A   5      34.497  22.431  16.463  0.00  0.00    +0.027 C 
ATOM     60  CG2 ILE A   5      33.628  22.231  17.697  0.00  0.00    +0.002 C 
BRANCH  59  61
ATOM     61  CG1 ILE A   5      33.874  23.518  15.509  0.00  0.00    +0.002 C 
ATOM     62  CD1 ILE A   5      33.762  24.899  16.119  0.00  0.00    +0.000 C 
ENDBRANCH  59  61
ENDBRANCH  38  59
ENDBRANCH  36  38
ENDBRANCH   1  34
BRANCH   1  63
ATOM     63  CB  SER A   4      37.640  26.128  13.948  0.00  0.00    +0.166 C 
BRANCH  63  64
ATOM     64  OG  SER A   4      38.321  26.520  12.769  0.00  0.00    -0.380 OA
ATOM     65  H   SER A   4      37.963  27.388  12.456  0.00  0.00    +0.211 HD
ENDBRANCH  63  64
ENDBRANCH   1  63
TORSDOF 31
REMARK  Name = ../refined-set-2016/4app/4app_pocket.pdb
REMARK  233 active torsions:
REMARK  status: ('A' for Active; 'I' for Inactive)
REMARK    1  A    between atoms: _1  and  _3
REMARK    2  A    between atoms: _3  and  _4
REMARK    3  A    between atoms: _3  and  _6
REMARK    4  A    between atoms: _6  and  _7
REMARK    5  A    between atoms: _10  and  _12
REMARK    6  A    between atoms: _12  and  _13
REMARK    7  A    between atoms: _15  and  _17
REMARK    8  A    between atoms: _17  and  _18
REMARK    9  A    between atoms: _17  and  _20
REMARK   10  A    between atoms: _20  and  _21
REMARK   11  A    between atoms: _21  and  _22
REMARK   12  A    between atoms: _25  and  _27
REMARK   13  A    between atoms: _27  and  _28
REMARK   14  A    between atoms: _30  and  _32
REMARK   15  A    between atoms: _32  and  _33
REMARK   16  A    between atoms: _32  and  _35
REMARK   17  A    between atoms: _35  and  _36
REMARK   18  A    between atoms: _38  and  _40
REMARK   19  A    between atoms: _40  and  _41
REMARK   20  A    between atoms: _40  and  _43
REMARK   21  A    between atoms: _43  and  _44
REMARK   22  A    between atoms: _47  and  _49
REMARK   23  A    between atoms: _49  and  _50
REMARK   24  A    between atoms: _52  and  _54
REMARK   25  A    between atoms: _54  and  _55
REMARK   26  A    between atoms: _54  and  _57
REMARK   27  A    between atoms: _57  and  _58
REMARK   28  A    between atoms: _61  and  _63
REMARK   29  A    between atoms: _63  and  _64
REMARK   30  A    between atoms: _63  and  _66
REMARK   31  A    between atoms: _69  and  _71
REMARK   32  A    between atoms: _71  and  _72
REMARK   33  A    between atoms: _71  and  _74
REMARK   34  A    between atoms: _76  and  _78
REMARK   35  A    between atoms: _78  and  _79
REMARK   36  A    between atoms: _78  and  _81
REMARK   37  A    between atoms: _81  and  _82
REMARK   38  A    between atoms: _85  and  _87
REMARK   39  A    between atoms: _87  and  _88
REMARK   40  A    between atoms: _87  and  _90
REMARK   41  A    between atoms: _90  and  _91
REMARK   42  A    between atoms: _94  and  _96
REMARK   43  A    between atoms: _96  and  _97
REMARK   44  A    between atoms: _96  and  _99
REMARK   45  A    between atoms: _102  and  _104
REMARK   46  A    between atoms: _104  and  _105
REMARK   47  A    between atoms: _108  and  _110
REMARK   48  A    between atoms: _110  and  _111
REMARK   49  A    between atoms: _110  and  _113
REMARK   50  A    between atoms: _116  and  _118
REMARK   51  A    between atoms: _118  and  _119
REMARK   52  A    between atoms: _118  and  _121
REMARK   53  A    between atoms: _121  and  _122
REMARK   54  A    between atoms: _122  and  _123
REMARK   55  A    between atoms: _123  and  _124
REMARK   56  A    between atoms: _124  and  _125
REMARK   57  A    between atoms: _129  and  _131
REMARK   58  A    between atoms: _131  and  _132
REMARK   59  A    between atoms: _131  and  _134
REMARK   60  A    between atoms: _134  and  _135
REMARK   61  A    between atoms: _135  and  _136
REMARK   62  A    between atoms: _136  and  _137
REMARK   63  A    between atoms: _137  and  _138
REMARK   64  A    between atoms: _142  and  _144
REMARK   65  A    between atoms: _144  and  _145
REMARK   66  A    between atoms: _144  and  _147
REMARK   67  A    between atoms: _147  and  _148
REMARK   68  A    between atoms: _148  and  _149
REMARK   69  A    between atoms: _151  and  _153
REMARK   70  A    between atoms: _153  and  _154
REMARK   71  A    between atoms: _153  and  _156
REMARK   72  A    between atoms: _156  and  _157
REMARK   73  A    between atoms: _160  and  _162
REMARK   74  A    between atoms: _162  and  _163
REMARK   75  A    between atoms: _162  and  _165
REMARK   76  A    between atoms: _165  and  _166
REMARK   77  A    between atoms: _166  and  _167
REMARK   78  A    between atoms: _172  and  _174
REMARK   79  A    between atoms: _174  and  _175
REMARK   80  A    between atoms: _174  and  _177
REMARK   81  A    between atoms: _177  and  _178
REMARK   82  A    between atoms: _178  and  _179
REMARK   83  A    between atoms: _182  and  _184
REMARK   84  A    between atoms: _184  and  _185
REMARK   85  A    between atoms: _184  and  _187
REMARK   86  A    between atoms: _190  and  _192
REMARK   87  A    between atoms: _192  and  _193
REMARK   88  A    between atoms: _192  and  _195
REMARK   89  A    between atoms: _195  and  _196
REMARK   90  A    between atoms: _196  and  _197
REMARK   91  A    between atoms: _200  and  _202
REMARK   92  A    between atoms: _202  and  _203
REMARK   93  A    between atoms: _202  and  _205
REMARK   94  A    between atoms: _205  and  _206
REMARK   95  A    between atoms: _206  and  _207
REMARK   96  A    between atoms: _209  and  _211
REMARK   97  A    between atoms: _211  and  _212
REMARK   98  A    between atoms: _211  and  _214
REMARK   99  A    between atoms: _214  and  _215
REMARK  100  A    between atoms: _218  and  _220
REMARK  101  A    between atoms: _220  and  _221
REMARK  102  A    between atoms: _220  and  _223
REMARK  103  A    between atoms: _226  and  _228
REMARK  104  A    between atoms: _228  and  _229
REMARK  105  A    between atoms: _228  and  _231
REMARK  106  A    between atoms: _234  and  _236
REMARK  107  A    between atoms: _236  and  _237
REMARK  108  A    between atoms: _236  and  _239
REMARK  109  A    between atoms: _239  and  _240
REMARK  110  A    between atoms: _240  and  _241
REMARK  111  A    between atoms: _243  and  _245
REMARK  112  A    between atoms: _245  and  _246
REMARK  113  A    between atoms: _245  and  _248
REMARK  114  A    between atoms: _248  and  _249
REMARK  115  A    between atoms: _249  and  _250
REMARK  116  A    between atoms: _253  and  _255
REMARK  117  A    between atoms: _255  and  _256
REMARK  118  A    between atoms: _255  and  _258
REMARK  119  A    between atoms: _258  and  _259
REMARK  120  A    between atoms: _265  and  _267
REMARK  121  A    between atoms: _267  and  _268
REMARK  122  A    between atoms: _267  and  _270
REMARK  123  A    between atoms: _270  and  _271
REMARK  124  A    between atoms: _274  and  _276
REMARK  125  A    between atoms: _276  and  _277
REMARK  126  A    between atoms: _276  and  _279
REMARK  127  A    between atoms: _279  and  _280
REMARK  128  A    between atoms: _280  and  _281
REMARK  129  A    between atoms: _284  and  _286
REMARK  130  A    between atoms: _286  and  _287
REMARK  131  A    between atoms: _289  and  _291
REMARK  132  A    between atoms: _291  and  _292
REMARK  133  A    between atoms: _294  and  _296
REMARK  134  A    between atoms: _296  and  _297
REMARK  135  A    between atoms: _300  and  _302
REMARK  136  A    between atoms: _302  and  _303
REMARK  137  A    between atoms: _302  and  _305
REMARK  138  A    between atoms: _305  and  _306
REMARK  139  A    between atoms: _309  and  _311
REMARK  140  A    between atoms: _311  and  _312
REMARK  141  A    between atoms: _311  and  _314
REMARK  142  A    between atoms: _314  and  _315
REMARK  143  A    between atoms: _318  and  _320
REMARK  144  A    between atoms: _320  and  _321
REMARK  145  A    between atoms: _320  and  _323
REMARK  146  A    between atoms: _323  and  _324
REMARK  147  A    between atoms: _327  and  _329
REMARK  148  A    between atoms: _329  and  _330
REMARK  149  A    between atoms: _329  and  _332
REMARK  150  A    between atoms: _332  and  _333
REMARK  151  A    between atoms: _336  and  _338
REMARK  152  A    between atoms: _338  and  _339
REMARK  153  A    between atoms: _338  and  _341
REMARK  154  A    between atoms: _341  and  _342
REMARK  155  A    between atoms: _345  and  _347
REMARK  156  A    between atoms: _347  and  _348
REMARK  157  A    between atoms: _347  and  _350
REMARK  158  A    between atoms: _350  and  _351
REMARK  159  A    between atoms: _356  and  _358
REMARK  160  A    between atoms: _358  and  _359
REMARK  161  A    between atoms: _358  and  _361
REMARK  162  A    between atoms: _361  and  _362
REMARK  163  A    between atoms: _365  and  _367
REMARK  164  A    between atoms: _367  and  _368
REMARK  165  A    between atoms: _367  and  _370
REMARK  166  A    between atoms: _370  and  _371
REMARK  167  A    between atoms: _371  and  _372
REMARK  168  A    between atoms: _372  and  _373
REMARK  169  A    between atoms: _373  and  _374
REMARK  170  A    between atoms: _378  and  _380
REMARK  171  A    between atoms: _380  and  _381
REMARK  172  A    between atoms: _380  and  _383
REMARK  173  A    between atoms: _383  and  _384
REMARK  174  A    between atoms: _386  and  _388
REMARK  175  A    between atoms: _388  and  _389
REMARK  176  A    between atoms: _388  and  _391
REMARK  177  A    between atoms: _391  and  _392
REMARK  178  A    between atoms: _395  and  _397
REMARK  179  A    between atoms: _397  and  _398
REMARK  180  A    between atoms: _397  and  _400
REMARK  181  A    between atoms: _400  and  _401
REMARK  182  A    between atoms: _403  and  _405
REMARK  183  A    between atoms: _405  and  _406
REMARK  184  A    between atoms: _405  and  _408
REMARK  185  A    between atoms: _408  and  _409
REMARK  186  A    between atoms: _412  and  _414
REMARK  187  A    between atoms: _414  and  _415
REMARK  188  A    between atoms: _414  and  _417
REMARK  189  A    between atoms: _417  and  _418
REMARK  190  A    between atoms: _421  and  _423
REMARK  191  A    between atoms: _423  and  _424
REMARK  192  A    between atoms: _423  and  _426
REMARK  193  A    between atoms: _426  and  _427
REMARK  194  A    between atoms: _430  and  _432
REMARK  195  A    between atoms: _432  and  _433
REMARK  196  A    between atoms: _432  and  _435
REMARK  197  A    between atoms: _435  and  _436
REMARK  198  A    between atoms: _439  and  _441
REMARK  199  A    between atoms: _441  and  _442
REMARK  200  A    between atoms: _441  and  _444
REMARK  201  A    between atoms: _444  and  _445
REMARK  202  A    between atoms: _447  and  _449
REMARK  203  A    between atoms: _449  and  _450
REMARK  204  A    between atoms: _449  and  _452
REMARK  205  A    between atoms: _452  and  _453
REMARK  206  A    between atoms: _456  and  _458
REMARK  207  A    between atoms: _458  and  _459
REMARK  208  A    between atoms: _458  and  _461
REMARK  209  A    between atoms: _461  and  _462
REMARK  210  A    between atoms: _468  and  _470
REMARK  211  A    between atoms: _470  and  _471
REMARK  212  A    between atoms: _473  and  _475
REMARK  213  A    between atoms: _475  and  _476
REMARK  214  A    between atoms: _475  and  _478
REMARK  215  A    between atoms: _478  and  _479
REMARK  216  A    between atoms: _479  and  _480
REMARK  217  A    between atoms: _482  and  _484
REMARK  218  A    between atoms: _484  and  _485
REMARK  219  A    between atoms: _484  and  _487
REMARK  220  A    between atoms: _487  and  _488
REMARK  221  A    between atoms: _488  and  _489
REMARK  222  A    between atoms: _489  and  _490
REMARK  223  A    between atoms: _499  and  _501
REMARK  224  A    between atoms: _501  and  _502
REMARK  225  A    between atoms: _501  and  _504
REMARK  226  A    between atoms: _504  and  _505
REMARK  227  A    between atoms: _505  and  _506
REMARK  228  A    between atoms: _511  and  _513
REMARK  229  A    between atoms: _513  and  _514
REMARK  230  A    between atoms: _513  and  _516
REMARK  231  A    between atoms: _516  and  _517
REMARK  232  A    between atoms: _517  and  _518
REMARK  233  A    between atoms: _518  and  _519
REMARK                            x       y       z     vdW  Elec       q    Type
REMARK                         _______ _______ _______ _____ _____    ______ ____
ROOT
ATOM      1  CA  ASP A   3      41.622  28.749  15.987  0.00  0.00    +0.160 C 
ENDROOT
BRANCH   1   3
ATOM      2  C   SER A   2      39.727  28.054  17.372  0.00  0.00    +0.243 C 
ATOM      3  N   ASP A   3      41.036  28.219  17.211  0.00  0.00    -0.296 N 
ATOM      4  H   ASP A   3      41.670  27.958  17.993  0.00  0.00    +0.150 HD
ATOM      5  O   SER A   2      38.894  28.323  16.505  0.00  0.00    -0.273 OA
BRANCH   2   6
ATOM      6  CA  SER A   2      39.296  27.492  18.721  0.00  0.00    +0.178 C 
BRANCH   6   9
ATOM      7  C   LEU A   1      37.072  27.486  19.679  0.00  0.00    +0.238 C 
ATOM      8  O   LEU A   1      37.460  28.118  20.668  0.00  0.00    -0.274 OA
ATOM      9  N   SER A   2      37.886  27.132  18.692  0.00  0.00    -0.295 N 
ATOM     10  H   SER A   2      37.511  26.590  17.887  0.00  0.00    +0.150 HD
BRANCH   7  11
ATOM     11  CA  LEU A   1      35.610  27.061  19.541  0.00  0.00    +0.145 C 
BRANCH  11  12
ATOM     12  N   LEU A   1      35.176  26.418  20.771  0.00  0.00    -0.238 NA
ATOM     13  H   LEU A   1      34.699  26.995  21.493  0.00  0.00    +0.142 HD
ENDBRANCH  11  12
BRANCH  11  14
ATOM     14  CB  LEU A   1      34.715  28.302  19.259  0.00  0.00    +0.026 C 
BRANCH  14  15
ATOM     15  CG  LEU A   1      34.986  29.152  18.013  0.00  0.00    +0.002 C 
ATOM     16  CD2 LEU A   1      34.012  30.330  17.986  0.00  0.00    +0.000 C 
ATOM     17  CD1 LEU A   1      34.831  28.301  16.755  0.00  0.00    +0.000 C 
ENDBRANCH  14  15
ENDBRANCH  11  14
ENDBRANCH   7  11
ENDBRANCH   6   9
BRANCH   6  18
ATOM     18  CB  SER A   2      40.163  26.260  19.073  0.00  0.00    +0.166 C 
BRANCH  18  19
ATOM     19  OG  SER A   2      40.079  25.277  18.056  0.00  0.00    -0.380 OA
ATOM     20  H   SER A   2      39.138  24.987  17.956  0.00  0.00    +0.211 HD
ENDBRANCH  18  19
ENDBRANCH   6  18
ENDBRANCH   2   6
ENDBRANCH   1   3
BRANCH   1  21
ATOM     21  C   ASP A   3      41.112  30.127  15.604  0.00  0.00    +0.241 C 
ATOM     22  N   PHE A   4      41.387  31.114  16.452  0.00  0.00    -0.297 N 
ATOM     23  H   PHE A   4      41.912  30.902  17.324  0.00  0.00    +0.150 HD
ATOM     24  O   ASP A   3      40.488  30.293  14.555  0.00  0.00    -0.273 OA
BRANCH  22  25
ATOM     25  CA  PHE A   4      40.970  32.489  16.188  0.00  0.00    +0.153 C 
BRANCH  25  26
ATOM     26  C   PHE A   4      42.034  33.238  15.385  0.00  0.00    +0.241 C 
ATOM     27  O   PHE A   4      42.078  34.471  15.393  0.00  0.00    -0.273 OA
ATOM     28  N   GLY A   5      42.874  32.483  14.680  0.00  0.00    -0.296 N 
ATOM     29  H   GLY A   5      42.764  31.449  14.698  0.00  0.00    +0.150 HD
BRANCH  28  30
ATOM     30  CA  GLY A   5      43.942  33.068  13.885  0.00  0.00    +0.163 C 
BRANCH  30  31
ATOM     31  C   GLY A   5      43.551  34.051  12.792  0.00  0.00    +0.229 C 
ATOM     32  O   GLY A   5      44.388  34.842  12.353  0.00  0.00    -0.286 OA
ENDBRANCH  30  31
ENDBRANCH  28  30
ENDBRANCH  25  26
BRANCH  25  33
ATOM     33  CB  PHE A   4      40.686  33.242  17.533  0.00  0.00    +0.055 C 
BRANCH  33  34
ATOM     34  CG  PHE A   4      39.381  32.860  18.179  0.00  0.00    -0.020 A 
ATOM     35  CD2 PHE A   4      39.186  31.580  18.690  0.00  0.00    -0.004 A 
ATOM     36  CE2 PHE A   4      37.970  31.220  19.273  0.00  0.00    -0.000 A 
ATOM     37  CZ  PHE A   4      36.934  32.145  19.346  0.00  0.00    -0.000 A 
ATOM     38  CE1 PHE A   4      37.119  33.428  18.839  0.00  0.00    -0.000 A 
ATOM     39  CD1 PHE A   4      38.338  33.779  18.260  0.00  0.00    -0.004 A 
ENDBRANCH  33  34
ENDBRANCH  25  33
ENDBRANCH  22  25
ENDBRANCH   1  21
BRANCH   1  40
ATOM     40  CB  ASP A   3      41.402  27.767  14.787  0.00  0.00    +0.143 C 
BRANCH  40  41
ATOM     41  CG  ASP A   3      42.395  26.633  14.912  0.00  0.00    +0.367 C 
ATOM     42  OD2 ASP A   3      43.452  26.842  15.546  0.00  0.00    -0.246 OA
ATOM     43  OD1 ASP A   3      42.126  25.541  14.366  0.00  0.00    -0.246 OA
ENDBRANCH  40  41
ENDBRANCH   1  40
TORSDOF 18
REMARK  Name = ../refined-set-2016/4app/4app_pocket.pdb
REMARK  233 active torsions:
REMARK  status: ('A' for Active; 'I' for Inactive)
REMARK    1  A    between atoms: _1  and  _3
REMARK    2  A    between atoms: _3  and  _4
REMARK    3  A    between atoms: _3  and  _6
REMARK    4  A    between atoms: _6  and  _7
REMARK    5  A    between atoms: _10  and  _12
REMARK    6  A    between atoms: _12  and  _13
REMARK    7  A    between atoms: _15  and  _17
REMARK    8  A    between atoms: _17  and  _18
REMARK    9  A    between atoms: _17  and  _20
REMARK   10  A    between atoms: _20  and  _21
REMARK   11  A    between atoms: _21  and  _22
REMARK   12  A    between atoms: _25  and  _27
REMARK   13  A    between atoms: _27  and  _28
REMARK   14  A    between atoms: _30  and  _32
REMARK   15  A    between atoms: _32  and  _33
REMARK   16  A    between atoms: _32  and  _35
REMARK   17  A    between atoms: _35  and  _36
REMARK   18  A    between atoms: _38  and  _40
REMARK   19  A    between atoms: _40  and  _41
REMARK   20  A    between atoms: _40  and  _43
REMARK   21  A    between atoms: _43  and  _44
REMARK   22  A    between atoms: _47  and  _49
REMARK   23  A    between atoms: _49  and  _50
REMARK   24  A    between atoms: _52  and  _54
REMARK   25  A    between atoms: _54  and  _55
REMARK   26  A    between atoms: _54  and  _57
REMARK   27  A    between atoms: _57  and  _58
REMARK   28  A    between atoms: _61  and  _63
REMARK   29  A    between atoms: _63  and  _64
REMARK   30  A    between atoms: _63  and  _66
REMARK   31  A    between atoms: _69  and  _71
REMARK   32  A    between atoms: _71  and  _72
REMARK   33  A    between atoms: _71  and  _74
REMARK   34  A    between atoms: _76  and  _78
REMARK   35  A    between atoms: _78  and  _79
REMARK   36  A    between atoms: _78  and  _81
REMARK   37  A    between atoms: _81  and  _82
REMARK   38  A    between atoms: _85  and  _87
REMARK   39  A    between atoms: _87  and  _88
REMARK   40  A    between atoms: _87  and  _90
REMARK   41  A    between atoms: _90  and  _91
REMARK   42  A    between atoms: _94  and  _96
REMARK   43  A    between atoms: _96  and  _97
REMARK   44  A    between atoms: _96  and  _99
REMARK   45  A    between atoms: _102  and  _104
REMARK   46  A    between atoms: _104  and  _105
REMARK   47  A    between atoms: _108  and  _110
REMARK   48  A    between atoms: _110  and  _111
REMARK   49  A    between atoms: _110  and  _113
REMARK   50  A    between atoms: _116  and  _118
REMARK   51  A    between atoms: _118  and  _119
REMARK   52  A    between atoms: _118  and  _121
REMARK   53  A    between atoms: _121  and  _122
REMARK   54  A    between atoms: _122  and  _123
REMARK   55  A    between atoms: _123  and  _124
REMARK   56  A    between atoms: _124  and  _125
REMARK   57  A    between atoms: _129  and  _131
REMARK   58  A    between atoms: _131  and  _132
REMARK   59  A    between atoms: _131  and  _134
REMARK   60  A    between atoms: _134  and  _135
REMARK   61  A    between atoms: _135  and  _136
REMARK   62  A    between atoms: _136  and  _137
REMARK   63  A    between atoms: _137  and  _138
REMARK   64  A    between atoms: _142  and  _144
REMARK   65  A    between atoms: _144  and  _145
REMARK   66  A    between atoms: _144  and  _147
REMARK   67  A    between atoms: _147  and  _148
REMARK   68  A    between atoms: _148  and  _149
REMARK   69  A    between atoms: _151  and  _153
REMARK   70  A    between atoms: _153  and  _154
REMARK   71  A    between atoms: _153  and  _156
REMARK   72  A    between atoms: _156  and  _157
REMARK   73  A    between atoms: _160  and  _162
REMARK   74  A    between atoms: _162  and  _163
REMARK   75  A    between atoms: _162  and  _165
REMARK   76  A    between atoms: _165  and  _166
REMARK   77  A    between atoms: _166  and  _167
REMARK   78  A    between atoms: _172  and  _174
REMARK   79  A    between atoms: _174  and  _175
REMARK   80  A    between atoms: _174  and  _177
REMARK   81  A    between atoms: _177  and  _178
REMARK   82  A    between atoms: _178  and  _179
REMARK   83  A    between atoms: _182  and  _184
REMARK   84  A    between atoms: _184  and  _185
REMARK   85  A    between atoms: _184  and  _187
REMARK   86  A    between atoms: _190  and  _192
REMARK   87  A    between atoms: _192  and  _193
REMARK   88  A    between atoms: _192  and  _195
REMARK   89  A    between atoms: _195  and  _196
REMARK   90  A    between atoms: _196  and  _197
REMARK   91  A    between atoms: _200  and  _202
REMARK   92  A    between atoms: _202  and  _203
REMARK   93  A    between atoms: _202  and  _205
REMARK   94  A    between atoms: _205  and  _206
REMARK   95  A    between atoms: _206  and  _207
REMARK   96  A    between atoms: _209  and  _211
REMARK   97  A    between atoms: _211  and  _212
REMARK   98  A    between atoms: _211  and  _214
REMARK   99  A    between atoms: _214  and  _215
REMARK  100  A    between atoms: _218  and  _220
REMARK  101  A    between atoms: _220  and  _221
REMARK  102  A    between atoms: _220  and  _223
REMARK  103  A    between atoms: _226  and  _228
REMARK  104  A    between atoms: _228  and  _229
REMARK  105  A    between atoms: _228  and  _231
REMARK  106  A    between atoms: _234  and  _236
REMARK  107  A    between atoms: _236  and  _237
REMARK  108  A    between atoms: _236  and  _239
REMARK  109  A    between atoms: _239  and  _240
REMARK  110  A    between atoms: _240  and  _241
REMARK  111  A    between atoms: _243  and  _245
REMARK  112  A    between atoms: _245  and  _246
REMARK  113  A    between atoms: _245  and  _248
REMARK  114  A    between atoms: _248  and  _249
REMARK  115  A    between atoms: _249  and  _250
REMARK  116  A    between atoms: _253  and  _255
REMARK  117  A    between atoms: _255  and  _256
REMARK  118  A    between atoms: _255  and  _258
REMARK  119  A    between atoms: _258  and  _259
REMARK  120  A    between atoms: _265  and  _267
REMARK  121  A    between atoms: _267  and  _268
REMARK  122  A    between atoms: _267  and  _270
REMARK  123  A    between atoms: _270  and  _271
REMARK  124  A    between atoms: _274  and  _276
REMARK  125  A    between atoms: _276  and  _277
REMARK  126  A    between atoms: _276  and  _279
REMARK  127  A    between atoms: _279  and  _280
REMARK  128  A    between atoms: _280  and  _281
REMARK  129  A    between atoms: _284  and  _286
REMARK  130  A    between atoms: _286  and  _287
REMARK  131  A    between atoms: _289  and  _291
REMARK  132  A    between atoms: _291  and  _292
REMARK  133  A    between atoms: _294  and  _296
REMARK  134  A    between atoms: _296  and  _297
REMARK  135  A    between atoms: _300  and  _302
REMARK  136  A    between atoms: _302  and  _303
REMARK  137  A    between atoms: _302  and  _305
REMARK  138  A    between atoms: _305  and  _306
REMARK  139  A    between atoms: _309  and  _311
REMARK  140  A    between atoms: _311  and  _312
REMARK  141  A    between atoms: _311  and  _314
REMARK  142  A    between atoms: _314  and  _315
REMARK  143  A    between atoms: _318  and  _320
REMARK  144  A    between atoms: _320  and  _321
REMARK  145  A    between atoms: _320  and  _323
REMARK  146  A    between atoms: _323  and  _324
REMARK  147  A    between atoms: _327  and  _329
REMARK  148  A    between atoms: _329  and  _330
REMARK  149  A    between atoms: _329  and  _332
REMARK  150  A    between atoms: _332  and  _333
REMARK  151  A    between atoms: _336  and  _338
REMARK  152  A    between atoms: _338  and  _339
REMARK  153  A    between atoms: _338  and  _341
REMARK  154  A    between atoms: _341  and  _342
REMARK  155  A    between atoms: _345  and  _347
REMARK  156  A    between atoms: _347  and  _348
REMARK  157  A    between atoms: _347  and  _350
REMARK  158  A    between atoms: _350  and  _351
REMARK  159  A    between atoms: _356  and  _358
REMARK  160  A    between atoms: _358  and  _359
REMARK  161  A    between atoms: _358  and  _361
REMARK  162  A    between atoms: _361  and  _362
REMARK  163  A    between atoms: _365  and  _367
REMARK  164  A    between atoms: _367  and  _368
REMARK  165  A    between atoms: _367  and  _370
REMARK  166  A    between atoms: _370  and  _371
REMARK  167  A    between atoms: _371  and  _372
REMARK  168  A    between atoms: _372  and  _373
REMARK  169  A    between atoms: _373  and  _374
REMARK  170  A    between atoms: _378  and  _380
REMARK  171  A    between atoms: _380  and  _381
REMARK  172  A    between atoms: _380  and  _383
REMARK  173  A    between atoms: _383  and  _384
REMARK  174  A    between atoms: _386  and  _388
REMARK  175  A    between atoms: _388  and  _389
REMARK  176  A    between atoms: _388  and  _391
REMARK  177  A    between atoms: _391  and  _392
REMARK  178  A    between atoms: _395  and  _397
REMARK  179  A    between atoms: _397  and  _398
REMARK  180  A    between atoms: _397  and  _400
REMARK  181  A    between atoms: _400  and  _401
REMARK  182  A    between atoms: _403  and  _405
REMARK  183  A    between atoms: _405  and  _406
REMARK  184  A    between atoms: _405  and  _408
REMARK  185  A    between atoms: _408  and  _409
REMARK  186  A    between atoms: _412  and  _414
REMARK  187  A    between atoms: _414  and  _415
REMARK  188  A    between atoms: _414  and  _417
REMARK  189  A    between atoms: _417  and  _418
REMARK  190  A    between atoms: _421  and  _423
REMARK  191  A    between atoms: _423  and  _424
REMARK  192  A    between atoms: _423  and  _426
REMARK  193  A    between atoms: _426  and  _427
REMARK  194  A    between atoms: _430  and  _432
REMARK  195  A    between atoms: _432  and  _433
REMARK  196  A    between atoms: _432  and  _435
REMARK  197  A    between atoms: _435  and  _436
REMARK  198  A    between atoms: _439  and  _441
REMARK  199  A    between atoms: _441  and  _442
REMARK  200  A    between atoms: _441  and  _444
REMARK  201  A    between atoms: _444  and  _445
REMARK  202  A    between atoms: _447  and  _449
REMARK  203  A    between atoms: _449  and  _450
REMARK  204  A    between atoms: _449  and  _452
REMARK  205  A    between atoms: _452  and  _453
REMARK  206  A    between atoms: _456  and  _458
REMARK  207  A    between atoms: _458  and  _459
REMARK  208  A    between atoms: _458  and  _461
REMARK  209  A    between atoms: _461  and  _462
REMARK  210  A    between atoms: _468  and  _470
REMARK  211  A    between atoms: _470  and  _471
REMARK  212  A    between atoms: _473  and  _475
REMARK  213  A    between atoms: _475  and  _476
REMARK  214  A    between atoms: _475  and  _478
REMARK  215  A    between atoms: _478  and  _479
REMARK  216  A    between atoms: _479  and  _480
REMARK  217  A    between atoms: _482  and  _484
REMARK  218  A    between atoms: _484  and  _485
REMARK  219  A    between atoms: _484  and  _487
REMARK  220  A    between atoms: _487  and  _488
REMARK  221  A    between atoms: _488  and  _489
REMARK  222  A    between atoms: _489  and  _490
REMARK  223  A    between atoms: _499  and  _501
REMARK  224  A    between atoms: _501  and  _502
REMARK  225  A    between atoms: _501  and  _504
REMARK  226  A    between atoms: _504  and  _505
REMARK  227  A    between atoms: _505  and  _506
REMARK  228  A    between atoms: _511  and  _513
REMARK  229  A    between atoms: _513  and  _514
REMARK  230  A    between atoms: _513  and  _516
REMARK  231  A    between atoms: _516  and  _517
REMARK  232  A    between atoms: _517  and  _518
REMARK  233  A    between atoms: _518  and  _519
REMARK                            x       y       z     vdW  Elec       q    Type
REMARK                         _______ _______ _______ _____ _____    ______ ____
ROOT
ATOM      1  CA  ARG A   2      37.822   8.255  17.979  0.00  0.00    +0.149 C 
ENDROOT
BRANCH   1   4
ATOM      2  C   MET A   1      36.011   9.222  19.315  0.00  0.00    +0.238 C 
ATOM      3  O   MET A   1      35.556   8.122  19.626  0.00  0.00    -0.274 OA
ATOM      4  N   ARG A   2      37.086   9.383  18.548  0.00  0.00    -0.297 N 
ATOM      5  H   ARG A   2      37.416  10.348  18.345  0.00  0.00    +0.150 HD
BRANCH   2   6
ATOM      6  CA  MET A   1      35.358  10.500  19.823  0.00  0.00    +0.146 C 
BRANCH   6   7
ATOM      7  N   MET A   1      33.905  10.425  19.783  0.00  0.00    -0.238 NA
ATOM      8  H   MET A   1      33.369  10.542  20.666  0.00  0.00    +0.142 HD
ENDBRANCH   6   7
BRANCH   6   9
ATOM      9  CB  MET A   1      35.812  10.779  21.253  0.00  0.00    +0.038 C 
BRANCH   9  10
ATOM     10  CG  MET A   1      35.140  12.081  21.650  0.00  0.00    +0.060 C 
BRANCH  10  11
ATOM     11  SD  MET A   1      35.449  12.480  23.368  0.00  0.00    -0.139 S 
ATOM     12  CE  MET A   1      34.260  13.845  23.606  0.00  0.00    +0.069 C 
ENDBRANCH  10  11
ENDBRANCH   9  10
ENDBRANCH   6   9
ENDBRANCH   2   6
ENDBRANCH   1   4
BRANCH   1  13
ATOM     13  C   ARG A   2      38.158   7.194  19.023  0.00  0.00    +0.241 C 
ATOM     14  N   GLN A   3      38.648   7.627  20.177  0.00  0.00    -0.298 N 
ATOM     15  H   GLN A   3      38.780   8.647  20.329  0.00  0.00    +0.150 HD
ATOM     16  O   ARG A   2      37.973   6.005  18.790  0.00  0.00    -0.273 OA
BRANCH  14  17
ATOM     17  CA  GLN A   3      39.003   6.691  21.234  0.00  0.00    +0.137 C 
BRANCH  17  18
ATOM     18  C   GLN A   3      37.804   5.893  21.749  0.00  0.00    +0.227 C 
ATOM     19  O   GLN A   3      37.977   4.884  22.429  0.00  0.00    -0.286 OA
ENDBRANCH  17  18
BRANCH  17  20
ATOM     20  CB  GLN A   3      39.697   7.446  22.431  0.00  0.00    +0.037 C 
BRANCH  20  21
ATOM     21  CG  GLN A   3      39.092   8.699  23.067  0.00  0.00    +0.087 C 
BRANCH  21  22
ATOM     22  CD  GLN A   3      39.443   9.972  22.313  0.00  0.00    +0.219 C 
ATOM     23  NE2 GLN A   3      40.186  10.862  22.966  0.00  0.00    -0.329 N 
ATOM     24 HE21 GLN A   3      40.491  10.669  23.941  0.00  0.00    +0.145 HD
ATOM     25 HE22 GLN A   3      40.462  11.750  22.501  0.00  0.00    +0.145 HD
ATOM     26  OE1 GLN A   3      39.057  10.153  21.158  0.00  0.00    -0.275 OA
ENDBRANCH  21  22
ENDBRANCH  20  21
ENDBRANCH  17  20
ENDBRANCH  14  17
ENDBRANCH   1  13
BRANCH   1  27
ATOM     27  CB  ARG A   2      39.137   8.751  17.297  0.00  0.00    +0.033 C 
BRANCH  27  28
ATOM     28  CG  ARG A   2      39.976   7.620  16.682  0.00  0.00    +0.045 C 
BRANCH  28  29
ATOM     29  CD  ARG A   2      41.221   8.131  15.955  0.00  0.00    +0.174 C 
BRANCH  29  30
ATOM     30  NE  ARG A   2      40.923   8.738  14.656  0.00  0.00    -0.265 N 
ATOM     31  HE  ARG A   2      40.802   9.770  14.620  0.00  0.00    +0.259 HD
ATOM     32  CZ  ARG A   2      40.796   8.060  13.519  0.00  0.00    +0.342 C 
ATOM     33  NH2 ARG A   2      40.941   6.741  13.504  0.00  0.00    -0.292 N 
ATOM     34 HH21 ARG A   2      41.155   6.231  14.385  0.00  0.00    +0.255 HD
ATOM     35 HH22 ARG A   2      40.840   6.217  12.611  0.00  0.00    +0.255 HD
ATOM     36  NH1 ARG A   2      40.534   8.700  12.390  0.00  0.00    -0.292 N 
ATOM     37 HH11 ARG A   2      40.427   9.734  12.391  0.00  0.00    +0.255 HD
ATOM     38 HH12 ARG A   2      40.435   8.168  11.502  0.00  0.00    +0.255 HD
ENDBRANCH  29  30
ENDBRANCH  28  29
ENDBRANCH  27  28
ENDBRANCH   1  27
TORSDOF 16
REMARK  Name = ../refined-set-2016/4app/4app_pocket.pdb
REMARK  233 active torsions:
REMARK  status: ('A' for Active; 'I' for Inactive)
REMARK    1  A    between atoms: _1  and  _3
REMARK    2  A    between atoms: _3  and  _4
REMARK    3  A    between atoms: _3  and  _6
REMARK    4  A    between atoms: _6  and  _7
REMARK    5  A    between atoms: _10  and  _12
REMARK    6  A    between atoms: _12  and  _13
REMARK    7  A    between atoms: _15  and  _17
REMARK    8  A    between atoms: _17  and  _18
REMARK    9  A    between atoms: _17  and  _20
REMARK   10  A    between atoms: _20  and  _21
REMARK   11  A    between atoms: _21  and  _22
REMARK   12  A    between atoms: _25  and  _27
REMARK   13  A    between atoms: _27  and  _28
REMARK   14  A    between atoms: _30  and  _32
REMARK   15  A    between atoms: _32  and  _33
REMARK   16  A    between atoms: _32  and  _35
REMARK   17  A    between atoms: _35  and  _36
REMARK   18  A    between atoms: _38  and  _40
REMARK   19  A    between atoms: _40  and  _41
REMARK   20  A    between atoms: _40  and  _43
REMARK   21  A    between atoms: _43  and  _44
REMARK   22  A    between atoms: _47  and  _49
REMARK   23  A    between atoms: _49  and  _50
REMARK   24  A    between atoms: _52  and  _54
REMARK   25  A    between atoms: _54  and  _55
REMARK   26  A    between atoms: _54  and  _57
REMARK   27  A    between atoms: _57  and  _58
REMARK   28  A    between atoms: _61  and  _63
REMARK   29  A    between atoms: _63  and  _64
REMARK   30  A    between atoms: _63  and  _66
REMARK   31  A    between atoms: _69  and  _71
REMARK   32  A    between atoms: _71  and  _72
REMARK   33  A    between atoms: _71  and  _74
REMARK   34  A    between atoms: _76  and  _78
REMARK   35  A    between atoms: _78  and  _79
REMARK   36  A    between atoms: _78  and  _81
REMARK   37  A    between atoms: _81  and  _82
REMARK   38  A    between atoms: _85  and  _87
REMARK   39  A    between atoms: _87  and  _88
REMARK   40  A    between atoms: _87  and  _90
REMARK   41  A    between atoms: _90  and  _91
REMARK   42  A    between atoms: _94  and  _96
REMARK   43  A    between atoms: _96  and  _97
REMARK   44  A    between atoms: _96  and  _99
REMARK   45  A    between atoms: _102  and  _104
REMARK   46  A    between atoms: _104  and  _105
REMARK   47  A    between atoms: _108  and  _110
REMARK   48  A    between atoms: _110  and  _111
REMARK   49  A    between atoms: _110  and  _113
REMARK   50  A    between atoms: _116  and  _118
REMARK   51  A    between atoms: _118  and  _119
REMARK   52  A    between atoms: _118  and  _121
REMARK   53  A    between atoms: _121  and  _122
REMARK   54  A    between atoms: _122  and  _123
REMARK   55  A    between atoms: _123  and  _124
REMARK   56  A    between atoms: _124  and  _125
REMARK   57  A    between atoms: _129  and  _131
REMARK   58  A    between atoms: _131  and  _132
REMARK   59  A    between atoms: _131  and  _134
REMARK   60  A    between atoms: _134  and  _135
REMARK   61  A    between atoms: _135  and  _136
REMARK   62  A    between atoms: _136  and  _137
REMARK   63  A    between atoms: _137  and  _138
REMARK   64  A    between atoms: _142  and  _144
REMARK   65  A    between atoms: _144  and  _145
REMARK   66  A    between atoms: _144  and  _147
REMARK   67  A    between atoms: _147  and  _148
REMARK   68  A    between atoms: _148  and  _149
REMARK   69  A    between atoms: _151  and  _153
REMARK   70  A    between atoms: _153  and  _154
REMARK   71  A    between atoms: _153  and  _156
REMARK   72  A    between atoms: _156  and  _157
REMARK   73  A    between atoms: _160  and  _162
REMARK   74  A    between atoms: _162  and  _163
REMARK   75  A    between atoms: _162  and  _165
REMARK   76  A    between atoms: _165  and  _166
REMARK   77  A    between atoms: _166  and  _167
REMARK   78  A    between atoms: _172  and  _174
REMARK   79  A    between atoms: _174  and  _175
REMARK   80  A    between atoms: _174  and  _177
REMARK   81  A    between atoms: _177  and  _178
REMARK   82  A    between atoms: _178  and  _179
REMARK   83  A    between atoms: _182  and  _184
REMARK   84  A    between atoms: _184  and  _185
REMARK   85  A    between atoms: _184  and  _187
REMARK   86  A    between atoms: _190  and  _192
REMARK   87  A    between atoms: _192  and  _193
REMARK   88  A    between atoms: _192  and  _195
REMARK   89  A    between atoms: _195  and  _196
REMARK   90  A    between atoms: _196  and  _197
REMARK   91  A    between atoms: _200  and  _202
REMARK   92  A    between atoms: _202  and  _203
REMARK   93  A    between atoms: _202  and  _205
REMARK   94  A    between atoms: _205  and  _206
REMARK   95  A    between atoms: _206  and  _207
REMARK   96  A    between atoms: _209  and  _211
REMARK   97  A    between atoms: _211  and  _212
REMARK   98  A    between atoms: _211  and  _214
REMARK   99  A    between atoms: _214  and  _215
REMARK  100  A    between atoms: _218  and  _220
REMARK  101  A    between atoms: _220  and  _221
REMARK  102  A    between atoms: _220  and  _223
REMARK  103  A    between atoms: _226  and  _228
REMARK  104  A    between atoms: _228  and  _229
REMARK  105  A    between atoms: _228  and  _231
REMARK  106  A    between atoms: _234  and  _236
REMARK  107  A    between atoms: _236  and  _237
REMARK  108  A    between atoms: _236  and  _239
REMARK  109  A    between atoms: _239  and  _240
REMARK  110  A    between atoms: _240  and  _241
REMARK  111  A    between atoms: _243  and  _245
REMARK  112  A    between atoms: _245  and  _246
REMARK  113  A    between atoms: _245  and  _248
REMARK  114  A    between atoms: _248  and  _249
REMARK  115  A    between atoms: _249  and  _250
REMARK  116  A    between atoms: _253  and  _255
REMARK  117  A    between atoms: _255  and  _256
REMARK  118  A    between atoms: _255  and  _258
REMARK  119  A    between atoms: _258  and  _259
REMARK  120  A    between atoms: _265  and  _267
REMARK  121  A    between atoms: _267  and  _268
REMARK  122  A    between atoms: _267  and  _270
REMARK  123  A    between atoms: _270  and  _271
REMARK  124  A    between atoms: _274  and  _276
REMARK  125  A    between atoms: _276  and  _277
REMARK  126  A    between atoms: _276  and  _279
REMARK  127  A    between atoms: _279  and  _280
REMARK  128  A    between atoms: _280  and  _281
REMARK  129  A    between atoms: _284  and  _286
REMARK  130  A    between atoms: _286  and  _287
REMARK  131  A    between atoms: _289  and  _291
REMARK  132  A    between atoms: _291  and  _292
REMARK  133  A    between atoms: _294  and  _296
REMARK  134  A    between atoms: _296  and  _297
REMARK  135  A    between atoms: _300  and  _302
REMARK  136  A    between atoms: _302  and  _303
REMARK  137  A    between atoms: _302  and  _305
REMARK  138  A    between atoms: _305  and  _306
REMARK  139  A    between atoms: _309  and  _311
REMARK  140  A    between atoms: _311  and  _312
REMARK  141  A    between atoms: _311  and  _314
REMARK  142  A    between atoms: _314  and  _315
REMARK  143  A    between atoms: _318  and  _320
REMARK  144  A    between atoms: _320  and  _321
REMARK  145  A    between atoms: _320  and  _323
REMARK  146  A    between atoms: _323  and  _324
REMARK  147  A    between atoms: _327  and  _329
REMARK  148  A    between atoms: _329  and  _330
REMARK  149  A    between atoms: _329  and  _332
REMARK  150  A    between atoms: _332  and  _333
REMARK  151  A    between atoms: _336  and  _338
REMARK  152  A    between atoms: _338  and  _339
REMARK  153  A    between atoms: _338  and  _341
REMARK  154  A    between atoms: _341  and  _342
REMARK  155  A    between atoms: _345  and  _347
REMARK  156  A    between atoms: _347  and  _348
REMARK  157  A    between atoms: _347  and  _350
REMARK  158  A    between atoms: _350  and  _351
REMARK  159  A    between atoms: _356  and  _358
REMARK  160  A    between atoms: _358  and  _359
REMARK  161  A    between atoms: _358  and  _361
REMARK  162  A    between atoms: _361  and  _362
REMARK  163  A    between atoms: _365  and  _367
REMARK  164  A    between atoms: _367  and  _368
REMARK  165  A    between atoms: _367  and  _370
REMARK  166  A    between atoms: _370  and  _371
REMARK  167  A    between atoms: _371  and  _372
REMARK  168  A    between atoms: _372  and  _373
REMARK  169  A    between atoms: _373  and  _374
REMARK  170  A    between atoms: _378  and  _380
REMARK  171  A    between atoms: _380  and  _381
REMARK  172  A    between atoms: _380  and  _383
REMARK  173  A    between atoms: _383  and  _384
REMARK  174  A    between atoms: _386  and  _388
REMARK  175  A    between atoms: _388  and  _389
REMARK  176  A    between atoms: _388  and  _391
REMARK  177  A    between atoms: _391  and  _392
REMARK  178  A    between atoms: _395  and  _397
REMARK  179  A    between atoms: _397  and  _398
REMARK  180  A    between atoms: _397  and  _400
REMARK  181  A    between atoms: _400  and  _401
REMARK  182  A    between atoms: _403  and  _405
REMARK  183  A    between atoms: _405  and  _406
REMARK  184  A    between atoms: _405  and  _408
REMARK  185  A    between atoms: _408  and  _409
REMARK  186  A    between atoms: _412  and  _414
REMARK  187  A    between atoms: _414  and  _415
REMARK  188  A    between atoms: _414  and  _417
REMARK  189  A    between atoms: _417  and  _418
REMARK  190  A    between atoms: _421  and  _423
REMARK  191  A    between atoms: _423  and  _424
REMARK  192  A    between atoms: _423  and  _426
REMARK  193  A    between atoms: _426  and  _427
REMARK  194  A    between atoms: _430  and  _432
REMARK  195  A    between atoms: _432  and  _433
REMARK  196  A    between atoms: _432  and  _435
REMARK  197  A    between atoms: _435  and  _436
REMARK  198  A    between atoms: _439  and  _441
REMARK  199  A    between atoms: _441  and  _442
REMARK  200  A    between atoms: _441  and  _444
REMARK  201  A    between atoms: _444  and  _445
REMARK  202  A    between atoms: _447  and  _449
REMARK  203  A    between atoms: _449  and  _450
REMARK  204  A    between atoms: _449  and  _452
REMARK  205  A    between atoms: _452  and  _453
REMARK  206  A    between atoms: _456  and  _458
REMARK  207  A    between atoms: _458  and  _459
REMARK  208  A    between atoms: _458  and  _461
REMARK  209  A    between atoms: _461  and  _462
REMARK  210  A    between atoms: _468  and  _470
REMARK  211  A    between atoms: _470  and  _471
REMARK  212  A    between atoms: _473  and  _475
REMARK  213  A    between atoms: _475  and  _476
REMARK  214  A    between atoms: _475  and  _478
REMARK  215  A    between atoms: _478  and  _479
REMARK  216  A    between atoms: _479  and  _480
REMARK  217  A    between atoms: _482  and  _484
REMARK  218  A    between atoms: _484  and  _485
REMARK  219  A    between atoms: _484  and  _487
REMARK  220  A    between atoms: _487  and  _488
REMARK  221  A    between atoms: _488  and  _489
REMARK  222  A    between atoms: _489  and  _490
REMARK  223  A    between atoms: _499  and  _501
REMARK  224  A    between atoms: _501  and  _502
REMARK  225  A    between atoms: _501  and  _504
REMARK  226  A    between atoms: _504  and  _505
REMARK  227  A    between atoms: _505  and  _506
REMARK  228  A    between atoms: _511  and  _513
REMARK  229  A    between atoms: _513  and  _514
REMARK  230  A    between atoms: _513  and  _516
REMARK  231  A    between atoms: _516  and  _517
REMARK  232  A    between atoms: _517  and  _518
REMARK  233  A    between atoms: _518  and  _519
REMARK                            x       y       z     vdW  Elec       q    Type
REMARK                         _______ _______ _______ _____ _____    ______ ____
ROOT
ATOM      1  NE  ARG A   1      35.101   7.544  14.801  0.00  0.00    -0.265 N 
ATOM      2  CZ  ARG A   1      35.998   8.523  14.895  0.00  0.00    +0.342 C 
ATOM      3  NH2 ARG A   1      35.749   9.591  15.641  0.00  0.00    -0.292 N 
ATOM      4 HH21 ARG A   1      34.849   9.667  16.157  0.00  0.00    +0.255 HD
ATOM      5 HH22 ARG A   1      36.454  10.353  15.710  0.00  0.00    +0.255 HD
ATOM      6  NH1 ARG A   1      37.142   8.444  14.226  0.00  0.00    -0.292 N 
ATOM      7 HH11 ARG A   1      37.842   9.210  14.300  0.00  0.00    +0.255 HD
ATOM      8 HH12 ARG A   1      37.338   7.616  13.627  0.00  0.00    +0.255 HD
ATOM      9  HE  ARG A   1      35.340   6.724  14.207  0.00  0.00    +0.259 HD
ENDROOT
BRANCH   1  10
ATOM     10  CD  ARG A   1      33.804   7.541  15.475  0.00  0.00    +0.174 C 
BRANCH  10  11
ATOM     11  CG  ARG A   1      33.887   7.161  16.949  0.00  0.00    +0.045 C 
BRANCH  11  12
ATOM     12  CB  ARG A   1      34.351   5.738  17.137  0.00  0.00    +0.029 C 
BRANCH  12  13
ATOM     13  CA  ARG A   1      34.102   4.844  18.372  0.00  0.00    +0.133 C 
BRANCH  13  14
ATOM     14  N   ARG A   1      34.920   5.270  19.509  0.00  0.00    -0.239 NA
ATOM     15  H   ARG A   1      35.860   5.680  19.337  0.00  0.00    +0.142 HD
ENDBRANCH  13  14
BRANCH  13  16
ATOM     16  C   ARG A   1      34.283   3.403  17.932  0.00  0.00    +0.224 C 
ATOM     17  O   ARG A   1      35.388   2.859  17.962  0.00  0.00    -0.287 OA
ENDBRANCH  13  16
ENDBRANCH  12  13
ENDBRANCH  11  12
ENDBRANCH  10  11
ENDBRANCH   1  10
TORSDOF 6
REMARK  Name = ../refined-set-2016/4app/4app_pocket.pdb
REMARK  233 active torsions:
REMARK  status: ('A' for Active; 'I' for Inactive)
REMARK    1  A    between atoms: _1  and  _3
REMARK    2  A    between atoms: _3  and  _4
REMARK    3  A    between atoms: _3  and  _6
REMARK    4  A    between atoms: _6  and  _7
REMARK    5  A    between atoms: _10  and  _12
REMARK    6  A    between atoms: _12  and  _13
REMARK    7  A    between atoms: _15  and  _17
REMARK    8  A    between atoms: _17  and  _18
REMARK    9  A    between atoms: _17  and  _20
REMARK   10  A    between atoms: _20  and  _21
REMARK   11  A    between atoms: _21  and  _22
REMARK   12  A    between atoms: _25  and  _27
REMARK   13  A    between atoms: _27  and  _28
REMARK   14  A    between atoms: _30  and  _32
REMARK   15  A    between atoms: _32  and  _33
REMARK   16  A    between atoms: _32  and  _35
REMARK   17  A    between atoms: _35  and  _36
REMARK   18  A    between atoms: _38  and  _40
REMARK   19  A    between atoms: _40  and  _41
REMARK   20  A    between atoms: _40  and  _43
REMARK   21  A    between atoms: _43  and  _44
REMARK   22  A    between atoms: _47  and  _49
REMARK   23  A    between atoms: _49  and  _50
REMARK   24  A    between atoms: _52  and  _54
REMARK   25  A    between atoms: _54  and  _55
REMARK   26  A    between atoms: _54  and  _57
REMARK   27  A    between atoms: _57  and  _58
REMARK   28  A    between atoms: _61  and  _63
REMARK   29  A    between atoms: _63  and  _64
REMARK   30  A    between atoms: _63  and  _66
REMARK   31  A    between atoms: _69  and  _71
REMARK   32  A    between atoms: _71  and  _72
REMARK   33  A    between atoms: _71  and  _74
REMARK   34  A    between atoms: _76  and  _78
REMARK   35  A    between atoms: _78  and  _79
REMARK   36  A    between atoms: _78  and  _81
REMARK   37  A    between atoms: _81  and  _82
REMARK   38  A    between atoms: _85  and  _87
REMARK   39  A    between atoms: _87  and  _88
REMARK   40  A    between atoms: _87  and  _90
REMARK   41  A    between atoms: _90  and  _91
REMARK   42  A    between atoms: _94  and  _96
REMARK   43  A    between atoms: _96  and  _97
REMARK   44  A    between atoms: _96  and  _99
REMARK   45  A    between atoms: _102  and  _104
REMARK   46  A    between atoms: _104  and  _105
REMARK   47  A    between atoms: _108  and  _110
REMARK   48  A    between atoms: _110  and  _111
REMARK   49  A    between atoms: _110  and  _113
REMARK   50  A    between atoms: _116  and  _118
REMARK   51  A    between atoms: _118  and  _119
REMARK   52  A    between atoms: _118  and  _121
REMARK   53  A    between atoms: _121  and  _122
REMARK   54  A    between atoms: _122  and  _123
REMARK   55  A    between atoms: _123  and  _124
REMARK   56  A    between atoms: _124  and  _125
REMARK   57  A    between atoms: _129  and  _131
REMARK   58  A    between atoms: _131  and  _132
REMARK   59  A    between atoms: _131  and  _134
REMARK   60  A    between atoms: _134  and  _135
REMARK   61  A    between atoms: _135  and  _136
REMARK   62  A    between atoms: _136  and  _137
REMARK   63  A    between atoms: _137  and  _138
REMARK   64  A    between atoms: _142  and  _144
REMARK   65  A    between atoms: _144  and  _145
REMARK   66  A    between atoms: _144  and  _147
REMARK   67  A    between atoms: _147  and  _148
REMARK   68  A    between atoms: _148  and  _149
REMARK   69  A    between atoms: _151  and  _153
REMARK   70  A    between atoms: _153  and  _154
REMARK   71  A    between atoms: _153  and  _156
REMARK   72  A    between atoms: _156  and  _157
REMARK   73  A    between atoms: _160  and  _162
REMARK   74  A    between atoms: _162  and  _163
REMARK   75  A    between atoms: _162  and  _165
REMARK   76  A    between atoms: _165  and  _166
REMARK   77  A    between atoms: _166  and  _167
REMARK   78  A    between atoms: _172  and  _174
REMARK   79  A    between atoms: _174  and  _175
REMARK   80  A    between atoms: _174  and  _177
REMARK   81  A    between atoms: _177  and  _178
REMARK   82  A    between atoms: _178  and  _179
REMARK   83  A    between atoms: _182  and  _184
REMARK   84  A    between atoms: _184  and  _185
REMARK   85  A    between atoms: _184  and  _187
REMARK   86  A    between atoms: _190  and  _192
REMARK   87  A    between atoms: _192  and  _193
REMARK   88  A    between atoms: _192  and  _195
REMARK   89  A    between atoms: _195  and  _196
REMARK   90  A    between atoms: _196  and  _197
REMARK   91  A    between atoms: _200  and  _202
REMARK   92  A    between atoms: _202  and  _203
REMARK   93  A    between atoms: _202  and  _205
REMARK   94  A    between atoms: _205  and  _206
REMARK   95  A    between atoms: _206  and  _207
REMARK   96  A    between atoms: _209  and  _211
REMARK   97  A    between atoms: _211  and  _212
REMARK   98  A    between atoms: _211  and  _214
REMARK   99  A    between atoms: _214  and  _215
REMARK  100  A    between atoms: _218  and  _220
REMARK  101  A    between atoms: _220  and  _221
REMARK  102  A    between atoms: _220  and  _223
REMARK  103  A    between atoms: _226  and  _228
REMARK  104  A    between atoms: _228  and  _229
REMARK  105  A    between atoms: _228  and  _231
REMARK  106  A    between atoms: _234  and  _236
REMARK  107  A    between atoms: _236  and  _237
REMARK  108  A    between atoms: _236  and  _239
REMARK  109  A    between atoms: _239  and  _240
REMARK  110  A    between atoms: _240  and  _241
REMARK  111  A    between atoms: _243  and  _245
REMARK  112  A    between atoms: _245  and  _246
REMARK  113  A    between atoms: _245  and  _248
REMARK  114  A    between atoms: _248  and  _249
REMARK  115  A    between atoms: _249  and  _250
REMARK  116  A    between atoms: _253  and  _255
REMARK  117  A    between atoms: _255  and  _256
REMARK  118  A    between atoms: _255  and  _258
REMARK  119  A    between atoms: _258  and  _259
REMARK  120  A    between atoms: _265  and  _267
REMARK  121  A    between atoms: _267  and  _268
REMARK  122  A    between atoms: _267  and  _270
REMARK  123  A    between atoms: _270  and  _271
REMARK  124  A    between atoms: _274  and  _276
REMARK  125  A    between atoms: _276  and  _277
REMARK  126  A    between atoms: _276  and  _279
REMARK  127  A    between atoms: _279  and  _280
REMARK  128  A    between atoms: _280  and  _281
REMARK  129  A    between atoms: _284  and  _286
REMARK  130  A    between atoms: _286  and  _287
REMARK  131  A    between atoms: _289  and  _291
REMARK  132  A    between atoms: _291  and  _292
REMARK  133  A    between atoms: _294  and  _296
REMARK  134  A    between atoms: _296  and  _297
REMARK  135  A    between atoms: _300  and  _302
REMARK  136  A    between atoms: _302  and  _303
REMARK  137  A    between atoms: _302  and  _305
REMARK  138  A    between atoms: _305  and  _306
REMARK  139  A    between atoms: _309  and  _311
REMARK  140  A    between atoms: _311  and  _312
REMARK  141  A    between atoms: _311  and  _314
REMARK  142  A    between atoms: _314  and  _315
REMARK  143  A    between atoms: _318  and  _320
REMARK  144  A    between atoms: _320  and  _321
REMARK  145  A    between atoms: _320  and  _323
REMARK  146  A    between atoms: _323  and  _324
REMARK  147  A    between atoms: _327  and  _329
REMARK  148  A    between atoms: _329  and  _330
REMARK  149  A    between atoms: _329  and  _332
REMARK  150  A    between atoms: _332  and  _333
REMARK  151  A    between atoms: _336  and  _338
REMARK  152  A    between atoms: _338  and  _339
REMARK  153  A    between atoms: _338  and  _341
REMARK  154  A    between atoms: _341  and  _342
REMARK  155  A    between atoms: _345  and  _347
REMARK  156  A    between atoms: _347  and  _348
REMARK  157  A    between atoms: _347  and  _350
REMARK  158  A    between atoms: _350  and  _351
REMARK  159  A    between atoms: _356  and  _358
REMARK  160  A    between atoms: _358  and  _359
REMARK  161  A    between atoms: _358  and  _361
REMARK  162  A    between atoms: _361  and  _362
REMARK  163  A    between atoms: _365  and  _367
REMARK  164  A    between atoms: _367  and  _368
REMARK  165  A    between atoms: _367  and  _370
REMARK  166  A    between atoms: _370  and  _371
REMARK  167  A    between atoms: _371  and  _372
REMARK  168  A    between atoms: _372  and  _373
REMARK  169  A    between atoms: _373  and  _374
REMARK  170  A    between atoms: _378  and  _380
REMARK  171  A    between atoms: _380  and  _381
REMARK  172  A    between atoms: _380  and  _383
REMARK  173  A    between atoms: _383  and  _384
REMARK  174  A    between atoms: _386  and  _388
REMARK  175  A    between atoms: _388  and  _389
REMARK  176  A    between atoms: _388  and  _391
REMARK  177  A    between atoms: _391  and  _392
REMARK  178  A    between atoms: _395  and  _397
REMARK  179  A    between atoms: _397  and  _398
REMARK  180  A    between atoms: _397  and  _400
REMARK  181  A    between atoms: _400  and  _401
REMARK  182  A    between atoms: _403  and  _405
REMARK  183  A    between atoms: _405  and  _406
REMARK  184  A    between atoms: _405  and  _408
REMARK  185  A    between atoms: _408  and  _409
REMARK  186  A    between atoms: _412  and  _414
REMARK  187  A    between atoms: _414  and  _415
REMARK  188  A    between atoms: _414  and  _417
REMARK  189  A    between atoms: _417  and  _418
REMARK  190  A    between atoms: _421  and  _423
REMARK  191  A    between atoms: _423  and  _424
REMARK  192  A    between atoms: _423  and  _426
REMARK  193  A    between atoms: _426  and  _427
REMARK  194  A    between atoms: _430  and  _432
REMARK  195  A    between atoms: _432  and  _433
REMARK  196  A    between atoms: _432  and  _435
REMARK  197  A    between atoms: _435  and  _436
REMARK  198  A    between atoms: _439  and  _441
REMARK  199  A    between atoms: _441  and  _442
REMARK  200  A    between atoms: _441  and  _444
REMARK  201  A    between atoms: _444  and  _445
REMARK  202  A    between atoms: _447  and  _449
REMARK  203  A    between atoms: _449  and  _450
REMARK  204  A    between atoms: _449  and  _452
REMARK  205  A    between atoms: _452  and  _453
REMARK  206  A    between atoms: _456  and  _458
REMARK  207  A    between atoms: _458  and  _459
REMARK  208  A    between atoms: _458  and  _461
REMARK  209  A    between atoms: _461  and  _462
REMARK  210  A    between atoms: _468  and  _470
REMARK  211  A    between atoms: _470  and  _471
REMARK  212  A    between atoms: _473  and  _475
REMARK  213  A    between atoms: _475  and  _476
REMARK  214  A    between atoms: _475  and  _478
REMARK  215  A    between atoms: _478  and  _479
REMARK  216  A    between atoms: _479  and  _480
REMARK  217  A    between atoms: _482  and  _484
REMARK  218  A    between atoms: _484  and  _485
REMARK  219  A    between atoms: _484  and  _487
REMARK  220  A    between atoms: _487  and  _488
REMARK  221  A    between atoms: _488  and  _489
REMARK  222  A    between atoms: _489  and  _490
REMARK  223  A    between atoms: _499  and  _501
REMARK  224  A    between atoms: _501  and  _502
REMARK  225  A    between atoms: _501  and  _504
REMARK  226  A    between atoms: _504  and  _505
REMARK  227  A    between atoms: _505  and  _506
REMARK  228  A    between atoms: _511  and  _513
REMARK  229  A    between atoms: _513  and  _514
REMARK  230  A    between atoms: _513  and  _516
REMARK  231  A    between atoms: _516  and  _517
REMARK  232  A    between atoms: _517  and  _518
REMARK  233  A    between atoms: _518  and  _519
REMARK                            x       y       z     vdW  Elec       q    Type
REMARK                         _______ _______ _______ _____ _____    ______ ____
ROOT
ATOM      1  O   HOH     1      45.022  21.835  29.730  0.00  0.00    +0.000 OA
ENDROOT
TORSDOF 0
REMARK  Name = ../refined-set-2016/4app/4app_pocket.pdb
REMARK  233 active torsions:
REMARK  status: ('A' for Active; 'I' for Inactive)
REMARK    1  A    between atoms: _1  and  _3
REMARK    2  A    between atoms: _3  and  _4
REMARK    3  A    between atoms: _3  and  _6
REMARK    4  A    between atoms: _6  and  _7
REMARK    5  A    between atoms: _10  and  _12
REMARK    6  A    between atoms: _12  and  _13
REMARK    7  A    between atoms: _15  and  _17
REMARK    8  A    between atoms: _17  and  _18
REMARK    9  A    between atoms: _17  and  _20
REMARK   10  A    between atoms: _20  and  _21
REMARK   11  A    between atoms: _21  and  _22
REMARK   12  A    between atoms: _25  and  _27
REMARK   13  A    between atoms: _27  and  _28
REMARK   14  A    between atoms: _30  and  _32
REMARK   15  A    between atoms: _32  and  _33
REMARK   16  A    between atoms: _32  and  _35
REMARK   17  A    between atoms: _35  and  _36
REMARK   18  A    between atoms: _38  and  _40
REMARK   19  A    between atoms: _40  and  _41
REMARK   20  A    between atoms: _40  and  _43
REMARK   21  A    between atoms: _43  and  _44
REMARK   22  A    between atoms: _47  and  _49
REMARK   23  A    between atoms: _49  and  _50
REMARK   24  A    between atoms: _52  and  _54
REMARK   25  A    between atoms: _54  and  _55
REMARK   26  A    between atoms: _54  and  _57
REMARK   27  A    between atoms: _57  and  _58
REMARK   28  A    between atoms: _61  and  _63
REMARK   29  A    between atoms: _63  and  _64
REMARK   30  A    between atoms: _63  and  _66
REMARK   31  A    between atoms: _69  and  _71
REMARK   32  A    between atoms: _71  and  _72
REMARK   33  A    between atoms: _71  and  _74
REMARK   34  A    between atoms: _76  and  _78
REMARK   35  A    between atoms: _78  and  _79
REMARK   36  A    between atoms: _78  and  _81
REMARK   37  A    between atoms: _81  and  _82
REMARK   38  A    between atoms: _85  and  _87
REMARK   39  A    between atoms: _87  and  _88
REMARK   40  A    between atoms: _87  and  _90
REMARK   41  A    between atoms: _90  and  _91
REMARK   42  A    between atoms: _94  and  _96
REMARK   43  A    between atoms: _96  and  _97
REMARK   44  A    between atoms: _96  and  _99
REMARK   45  A    between atoms: _102  and  _104
REMARK   46  A    between atoms: _104  and  _105
REMARK   47  A    between atoms: _108  and  _110
REMARK   48  A    between atoms: _110  and  _111
REMARK   49  A    between atoms: _110  and  _113
REMARK   50  A    between atoms: _116  and  _118
REMARK   51  A    between atoms: _118  and  _119
REMARK   52  A    between atoms: _118  and  _121
REMARK   53  A    between atoms: _121  and  _122
REMARK   54  A    between atoms: _122  and  _123
REMARK   55  A    between atoms: _123  and  _124
REMARK   56  A    between atoms: _124  and  _125
REMARK   57  A    between atoms: _129  and  _131
REMARK   58  A    between atoms: _131  and  _132
REMARK   59  A    between atoms: _131  and  _134
REMARK   60  A    between atoms: _134  and  _135
REMARK   61  A    between atoms: _135  and  _136
REMARK   62  A    between atoms: _136  and  _137
REMARK   63  A    between atoms: _137  and  _138
REMARK   64  A    between atoms: _142  and  _144
REMARK   65  A    between atoms: _144  and  _145
REMARK   66  A    between atoms: _144  and  _147
REMARK   67  A    between atoms: _147  and  _148
REMARK   68  A    between atoms: _148  and  _149
REMARK   69  A    between atoms: _151  and  _153
REMARK   70  A    between atoms: _153  and  _154
REMARK   71  A    between atoms: _153  and  _156
REMARK   72  A    between atoms: _156  and  _157
REMARK   73  A    between atoms: _160  and  _162
REMARK   74  A    between atoms: _162  and  _163
REMARK   75  A    between atoms: _162  and  _165
REMARK   76  A    between atoms: _165  and  _166
REMARK   77  A    between atoms: _166  and  _167
REMARK   78  A    between atoms: _172  and  _174
REMARK   79  A    between atoms: _174  and  _175
REMARK   80  A    between atoms: _174  and  _177
REMARK   81  A    between atoms: _177  and  _178
REMARK   82  A    between atoms: _178  and  _179
REMARK   83  A    between atoms: _182  and  _184
REMARK   84  A    between atoms: _184  and  _185
REMARK   85  A    between atoms: _184  and  _187
REMARK   86  A    between atoms: _190  and  _192
REMARK   87  A    between atoms: _192  and  _193
REMARK   88  A    between atoms: _192  and  _195
REMARK   89  A    between atoms: _195  and  _196
REMARK   90  A    between atoms: _196  and  _197
REMARK   91  A    between atoms: _200  and  _202
REMARK   92  A    between atoms: _202  and  _203
REMARK   93  A    between atoms: _202  and  _205
REMARK   94  A    between atoms: _205  and  _206
REMARK   95  A    between atoms: _206  and  _207
REMARK   96  A    between atoms: _209  and  _211
REMARK   97  A    between atoms: _211  and  _212
REMARK   98  A    between atoms: _211  and  _214
REMARK   99  A    between atoms: _214  and  _215
REMARK  100  A    between atoms: _218  and  _220
REMARK  101  A    between atoms: _220  and  _221
REMARK  102  A    between atoms: _220  and  _223
REMARK  103  A    between atoms: _226  and  _228
REMARK  104  A    between atoms: _228  and  _229
REMARK  105  A    between atoms: _228  and  _231
REMARK  106  A    between atoms: _234  and  _236
REMARK  107  A    between atoms: _236  and  _237
REMARK  108  A    between atoms: _236  and  _239
REMARK  109  A    between atoms: _239  and  _240
REMARK  110  A    between atoms: _240  and  _241
REMARK  111  A    between atoms: _243  and  _245
REMARK  112  A    between atoms: _245  and  _246
REMARK  113  A    between atoms: _245  and  _248
REMARK  114  A    between atoms: _248  and  _249
REMARK  115  A    between atoms: _249  and  _250
REMARK  116  A    between atoms: _253  and  _255
REMARK  117  A    between atoms: _255  and  _256
REMARK  118  A    between atoms: _255  and  _258
REMARK  119  A    between atoms: _258  and  _259
REMARK  120  A    between atoms: _265  and  _267
REMARK  121  A    between atoms: _267  and  _268
REMARK  122  A    between atoms: _267  and  _270
REMARK  123  A    between atoms: _270  and  _271
REMARK  124  A    between atoms: _274  and  _276
REMARK  125  A    between atoms: _276  and  _277
REMARK  126  A    between atoms: _276  and  _279
REMARK  127  A    between atoms: _279  and  _280
REMARK  128  A    between atoms: _280  and  _281
REMARK  129  A    between atoms: _284  and  _286
REMARK  130  A    between atoms: _286  and  _287
REMARK  131  A    between atoms: _289  and  _291
REMARK  132  A    between atoms: _291  and  _292
REMARK  133  A    between atoms: _294  and  _296
REMARK  134  A    between atoms: _296  and  _297
REMARK  135  A    between atoms: _300  and  _302
REMARK  136  A    between atoms: _302  and  _303
REMARK  137  A    between atoms: _302  and  _305
REMARK  138  A    between atoms: _305  and  _306
REMARK  139  A    between atoms: _309  and  _311
REMARK  140  A    between atoms: _311  and  _312
REMARK  141  A    between atoms: _311  and  _314
REMARK  142  A    between atoms: _314  and  _315
REMARK  143  A    between atoms: _318  and  _320
REMARK  144  A    between atoms: _320  and  _321
REMARK  145  A    between atoms: _320  and  _323
REMARK  146  A    between atoms: _323  and  _324
REMARK  147  A    between atoms: _327  and  _329
REMARK  148  A    between atoms: _329  and  _330
REMARK  149  A    between atoms: _329  and  _332
REMARK  150  A    between atoms: _332  and  _333
REMARK  151  A    between atoms: _336  and  _338
REMARK  152  A    between atoms: _338  and  _339
REMARK  153  A    between atoms: _338  and  _341
REMARK  154  A    between atoms: _341  and  _342
REMARK  155  A    between atoms: _345  and  _347
REMARK  156  A    between atoms: _347  and  _348
REMARK  157  A    between atoms: _347  and  _350
REMARK  158  A    between atoms: _350  and  _351
REMARK  159  A    between atoms: _356  and  _358
REMARK  160  A    between atoms: _358  and  _359
REMARK  161  A    between atoms: _358  and  _361
REMARK  162  A    between atoms: _361  and  _362
REMARK  163  A    between atoms: _365  and  _367
REMARK  164  A    between atoms: _367  and  _368
REMARK  165  A    between atoms: _367  and  _370
REMARK  166  A    between atoms: _370  and  _371
REMARK  167  A    between atoms: _371  and  _372
REMARK  168  A    between atoms: _372  and  _373
REMARK  169  A    between atoms: _373  and  _374
REMARK  170  A    between atoms: _378  and  _380
REMARK  171  A    between atoms: _380  and  _381
REMARK  172  A    between atoms: _380  and  _383
REMARK  173  A    between atoms: _383  and  _384
REMARK  174  A    between atoms: _386  and  _388
REMARK  175  A    between atoms: _388  and  _389
REMARK  176  A    between atoms: _388  and  _391
REMARK  177  A    between atoms: _391  and  _392
REMARK  178  A    between atoms: _395  and  _397
REMARK  179  A    between atoms: _397  and  _398
REMARK  180  A    between atoms: _397  and  _400
REMARK  181  A    between atoms: _400  and  _401
REMARK  182  A    between atoms: _403  and  _405
REMARK  183  A    between atoms: _405  and  _406
REMARK  184  A    between atoms: _405  and  _408
REMARK  185  A    between atoms: _408  and  _409
REMARK  186  A    between atoms: _412  and  _414
REMARK  187  A    between atoms: _414  and  _415
REMARK  188  A    between atoms: _414  and  _417
REMARK  189  A    between atoms: _417  and  _418
REMARK  190  A    between atoms: _421  and  _423
REMARK  191  A    between atoms: _423  and  _424
REMARK  192  A    between atoms: _423  and  _426
REMARK  193  A    between atoms: _426  and  _427
REMARK  194  A    between atoms: _430  and  _432
REMARK  195  A    between atoms: _432  and  _433
REMARK  196  A    between atoms: _432  and  _435
REMARK  197  A    between atoms: _435  and  _436
REMARK  198  A    between atoms: _439  and  _441
REMARK  199  A    between atoms: _441  and  _442
REMARK  200  A    between atoms: _441  and  _444
REMARK  201  A    between atoms: _444  and  _445
REMARK  202  A    between atoms: _447  and  _449
REMARK  203  A    between atoms: _449  and  _450
REMARK  204  A    between atoms: _449  and  _452
REMARK  205  A    between atoms: _452  and  _453
REMARK  206  A    between atoms: _456  and  _458
REMARK  207  A    between atoms: _458  and  _459
REMARK  208  A    between atoms: _458  and  _461
REMARK  209  A    between atoms: _461  and  _462
REMARK  210  A    between atoms: _468  and  _470
REMARK  211  A    between atoms: _470  and  _471
REMARK  212  A    between atoms: _473  and  _475
REMARK  213  A    between atoms: _475  and  _476
REMARK  214  A    between atoms: _475  and  _478
REMARK  215  A    between atoms: _478  and  _479
REMARK  216  A    between atoms: _479  and  _480
REMARK  217  A    between atoms: _482  and  _484
REMARK  218  A    between atoms: _484  and  _485
REMARK  219  A    between atoms: _484  and  _487
REMARK  220  A    between atoms: _487  and  _488
REMARK  221  A    between atoms: _488  and  _489
REMARK  222  A    between atoms: _489  and  _490
REMARK  223  A    between atoms: _499  and  _501
REMARK  224  A    between atoms: _501  and  _502
REMARK  225  A    between atoms: _501  and  _504
REMARK  226  A    between atoms: _504  and  _505
REMARK  227  A    between atoms: _505  and  _506
REMARK  228  A    between atoms: _511  and  _513
REMARK  229  A    between atoms: _513  and  _514
REMARK  230  A    between atoms: _513  and  _516
REMARK  231  A    between atoms: _516  and  _517
REMARK  232  A    between atoms: _517  and  _518
REMARK  233  A    between atoms: _518  and  _519
REMARK                            x       y       z     vdW  Elec       q    Type
REMARK                         _______ _______ _______ _____ _____    ______ ____
ROOT
ATOM      1  O   HOH     1      46.925  30.686  14.879  0.00  0.00    +0.000 OA
ENDROOT
TORSDOF 0
REMARK  Name = ../refined-set-2016/4app/4app_pocket.pdb
REMARK  233 active torsions:
REMARK  status: ('A' for Active; 'I' for Inactive)
REMARK    1  A    between atoms: _1  and  _3
REMARK    2  A    between atoms: _3  and  _4
REMARK    3  A    between atoms: _3  and  _6
REMARK    4  A    between atoms: _6  and  _7
REMARK    5  A    between atoms: _10  and  _12
REMARK    6  A    between atoms: _12  and  _13
REMARK    7  A    between atoms: _15  and  _17
REMARK    8  A    between atoms: _17  and  _18
REMARK    9  A    between atoms: _17  and  _20
REMARK   10  A    between atoms: _20  and  _21
REMARK   11  A    between atoms: _21  and  _22
REMARK   12  A    between atoms: _25  and  _27
REMARK   13  A    between atoms: _27  and  _28
REMARK   14  A    between atoms: _30  and  _32
REMARK   15  A    between atoms: _32  and  _33
REMARK   16  A    between atoms: _32  and  _35
REMARK   17  A    between atoms: _35  and  _36
REMARK   18  A    between atoms: _38  and  _40
REMARK   19  A    between atoms: _40  and  _41
REMARK   20  A    between atoms: _40  and  _43
REMARK   21  A    between atoms: _43  and  _44
REMARK   22  A    between atoms: _47  and  _49
REMARK   23  A    between atoms: _49  and  _50
REMARK   24  A    between atoms: _52  and  _54
REMARK   25  A    between atoms: _54  and  _55
REMARK   26  A    between atoms: _54  and  _57
REMARK   27  A    between atoms: _57  and  _58
REMARK   28  A    between atoms: _61  and  _63
REMARK   29  A    between atoms: _63  and  _64
REMARK   30  A    between atoms: _63  and  _66
REMARK   31  A    between atoms: _69  and  _71
REMARK   32  A    between atoms: _71  and  _72
REMARK   33  A    between atoms: _71  and  _74
REMARK   34  A    between atoms: _76  and  _78
REMARK   35  A    between atoms: _78  and  _79
REMARK   36  A    between atoms: _78  and  _81
REMARK   37  A    between atoms: _81  and  _82
REMARK   38  A    between atoms: _85  and  _87
REMARK   39  A    between atoms: _87  and  _88
REMARK   40  A    between atoms: _87  and  _90
REMARK   41  A    between atoms: _90  and  _91
REMARK   42  A    between atoms: _94  and  _96
REMARK   43  A    between atoms: _96  and  _97
REMARK   44  A    between atoms: _96  and  _99
REMARK   45  A    between atoms: _102  and  _104
REMARK   46  A    between atoms: _104  and  _105
REMARK   47  A    between atoms: _108  and  _110
REMARK   48  A    between atoms: _110  and  _111
REMARK   49  A    between atoms: _110  and  _113
REMARK   50  A    between atoms: _116  and  _118
REMARK   51  A    between atoms: _118  and  _119
REMARK   52  A    between atoms: _118  and  _121
REMARK   53  A    between atoms: _121  and  _122
REMARK   54  A    between atoms: _122  and  _123
REMARK   55  A    between atoms: _123  and  _124
REMARK   56  A    between atoms: _124  and  _125
REMARK   57  A    between atoms: _129  and  _131
REMARK   58  A    between atoms: _131  and  _132
REMARK   59  A    between atoms: _131  and  _134
REMARK   60  A    between atoms: _134  and  _135
REMARK   61  A    between atoms: _135  and  _136
REMARK   62  A    between atoms: _136  and  _137
REMARK   63  A    between atoms: _137  and  _138
REMARK   64  A    between atoms: _142  and  _144
REMARK   65  A    between atoms: _144  and  _145
REMARK   66  A    between atoms: _144  and  _147
REMARK   67  A    between atoms: _147  and  _148
REMARK   68  A    between atoms: _148  and  _149
REMARK   69  A    between atoms: _151  and  _153
REMARK   70  A    between atoms: _153  and  _154
REMARK   71  A    between atoms: _153  and  _156
REMARK   72  A    between atoms: _156  and  _157
REMARK   73  A    between atoms: _160  and  _162
REMARK   74  A    between atoms: _162  and  _163
REMARK   75  A    between atoms: _162  and  _165
REMARK   76  A    between atoms: _165  and  _166
REMARK   77  A    between atoms: _166  and  _167
REMARK   78  A    between atoms: _172  and  _174
REMARK   79  A    between atoms: _174  and  _175
REMARK   80  A    between atoms: _174  and  _177
REMARK   81  A    between atoms: _177  and  _178
REMARK   82  A    between atoms: _178  and  _179
REMARK   83  A    between atoms: _182  and  _184
REMARK   84  A    between atoms: _184  and  _185
REMARK   85  A    between atoms: _184  and  _187
REMARK   86  A    between atoms: _190  and  _192
REMARK   87  A    between atoms: _192  and  _193
REMARK   88  A    between atoms: _192  and  _195
REMARK   89  A    between atoms: _195  and  _196
REMARK   90  A    between atoms: _196  and  _197
REMARK   91  A    between atoms: _200  and  _202
REMARK   92  A    between atoms: _202  and  _203
REMARK   93  A    between atoms: _202  and  _205
REMARK   94  A    between atoms: _205  and  _206
REMARK   95  A    between atoms: _206  and  _207
REMARK   96  A    between atoms: _209  and  _211
REMARK   97  A    between atoms: _211  and  _212
REMARK   98  A    between atoms: _211  and  _214
REMARK   99  A    between atoms: _214  and  _215
REMARK  100  A    between atoms: _218  and  _220
REMARK  101  A    between atoms: _220  and  _221
REMARK  102  A    between atoms: _220  and  _223
REMARK  103  A    between atoms: _226  and  _228
REMARK  104  A    between atoms: _228  and  _229
REMARK  105  A    between atoms: _228  and  _231
REMARK  106  A    between atoms: _234  and  _236
REMARK  107  A    between atoms: _236  and  _237
REMARK  108  A    between atoms: _236  and  _239
REMARK  109  A    between atoms: _239  and  _240
REMARK  110  A    between atoms: _240  and  _241
REMARK  111  A    between atoms: _243  and  _245
REMARK  112  A    between atoms: _245  and  _246
REMARK  113  A    between atoms: _245  and  _248
REMARK  114  A    between atoms: _248  and  _249
REMARK  115  A    between atoms: _249  and  _250
REMARK  116  A    between atoms: _253  and  _255
REMARK  117  A    between atoms: _255  and  _256
REMARK  118  A    between atoms: _255  and  _258
REMARK  119  A    between atoms: _258  and  _259
REMARK  120  A    between atoms: _265  and  _267
REMARK  121  A    between atoms: _267  and  _268
REMARK  122  A    between atoms: _267  and  _270
REMARK  123  A    between atoms: _270  and  _271
REMARK  124  A    between atoms: _274  and  _276
REMARK  125  A    between atoms: _276  and  _277
REMARK  126  A    between atoms: _276  and  _279
REMARK  127  A    between atoms: _279  and  _280
REMARK  128  A    between atoms: _280  and  _281
REMARK  129  A    between atoms: _284  and  _286
REMARK  130  A    between atoms: _286  and  _287
REMARK  131  A    between atoms: _289  and  _291
REMARK  132  A    between atoms: _291  and  _292
REMARK  133  A    between atoms: _294  and  _296
REMARK  134  A    between atoms: _296  and  _297
REMARK  135  A    between atoms: _300  and  _302
REMARK  136  A    between atoms: _302  and  _303
REMARK  137  A    between atoms: _302  and  _305
REMARK  138  A    between atoms: _305  and  _306
REMARK  139  A    between atoms: _309  and  _311
REMARK  140  A    between atoms: _311  and  _312
REMARK  141  A    between atoms: _311  and  _314
REMARK  142  A    between atoms: _314  and  _315
REMARK  143  A    between atoms: _318  and  _320
REMARK  144  A    between atoms: _320  and  _321
REMARK  145  A    between atoms: _320  and  _323
REMARK  146  A    between atoms: _323  and  _324
REMARK  147  A    between atoms: _327  and  _329
REMARK  148  A    between atoms: _329  and  _330
REMARK  149  A    between atoms: _329  and  _332
REMARK  150  A    between atoms: _332  and  _333
REMARK  151  A    between atoms: _336  and  _338
REMARK  152  A    between atoms: _338  and  _339
REMARK  153  A    between atoms: _338  and  _341
REMARK  154  A    between atoms: _341  and  _342
REMARK  155  A    between atoms: _345  and  _347
REMARK  156  A    between atoms: _347  and  _348
REMARK  157  A    between atoms: _347  and  _350
REMARK  158  A    between atoms: _350  and  _351
REMARK  159  A    between atoms: _356  and  _358
REMARK  160  A    between atoms: _358  and  _359
REMARK  161  A    between atoms: _358  and  _361
REMARK  162  A    between atoms: _361  and  _362
REMARK  163  A    between atoms: _365  and  _367
REMARK  164  A    between atoms: _367  and  _368
REMARK  165  A    between atoms: _367  and  _370
REMARK  166  A    between atoms: _370  and  _371
REMARK  167  A    between atoms: _371  and  _372
REMARK  168  A    between atoms: _372  and  _373
REMARK  169  A    between atoms: _373  and  _374
REMARK  170  A    between atoms: _378  and  _380
REMARK  171  A    between atoms: _380  and  _381
REMARK  172  A    between atoms: _380  and  _383
REMARK  173  A    between atoms: _383  and  _384
REMARK  174  A    between atoms: _386  and  _388
REMARK  175  A    between atoms: _388  and  _389
REMARK  176  A    between atoms: _388  and  _391
REMARK  177  A    between atoms: _391  and  _392
REMARK  178  A    between atoms: _395  and  _397
REMARK  179  A    between atoms: _397  and  _398
REMARK  180  A    between atoms: _397  and  _400
REMARK  181  A    between atoms: _400  and  _401
REMARK  182  A    between atoms: _403  and  _405
REMARK  183  A    between atoms: _405  and  _406
REMARK  184  A    between atoms: _405  and  _408
REMARK  185  A    between atoms: _408  and  _409
REMARK  186  A    between atoms: _412  and  _414
REMARK  187  A    between atoms: _414  and  _415
REMARK  188  A    between atoms: _414  and  _417
REMARK  189  A    between atoms: _417  and  _418
REMARK  190  A    between atoms: _421  and  _423
REMARK  191  A    between atoms: _423  and  _424
REMARK  192  A    between atoms: _423  and  _426
REMARK  193  A    between atoms: _426  and  _427
REMARK  194  A    between atoms: _430  and  _432
REMARK  195  A    between atoms: _432  and  _433
REMARK  196  A    between atoms: _432  and  _435
REMARK  197  A    between atoms: _435  and  _436
REMARK  198  A    between atoms: _439  and  _441
REMARK  199  A    between atoms: _441  and  _442
REMARK  200  A    between atoms: _441  and  _444
REMARK  201  A    between atoms: _444  and  _445
REMARK  202  A    between atoms: _447  and  _449
REMARK  203  A    between atoms: _449  and  _450
REMARK  204  A    between atoms: _449  and  _452
REMARK  205  A    between atoms: _452  and  _453
REMARK  206  A    between atoms: _456  and  _458
REMARK  207  A    between atoms: _458  and  _459
REMARK  208  A    between atoms: _458  and  _461
REMARK  209  A    between atoms: _461  and  _462
REMARK  210  A    between atoms: _468  and  _470
REMARK  211  A    between atoms: _470  and  _471
REMARK  212  A    between atoms: _473  and  _475
REMARK  213  A    between atoms: _475  and  _476
REMARK  214  A    between atoms: _475  and  _478
REMARK  215  A    between atoms: _478  and  _479
REMARK  216  A    between atoms: _479  and  _480
REMARK  217  A    between atoms: _482  and  _484
REMARK  218  A    between atoms: _484  and  _485
REMARK  219  A    between atoms: _484  and  _487
REMARK  220  A    between atoms: _487  and  _488
REMARK  221  A    between atoms: _488  and  _489
REMARK  222  A    between atoms: _489  and  _490
REMARK  223  A    between atoms: _499  and  _501
REMARK  224  A    between atoms: _501  and  _502
REMARK  225  A    between atoms: _501  and  _504
REMARK  226  A    between atoms: _504  and  _505
REMARK  227  A    between atoms: _505  and  _506
REMARK  228  A    between atoms: _511  and  _513
REMARK  229  A    between atoms: _513  and  _514
REMARK  230  A    between atoms: _513  and  _516
REMARK  231  A    between atoms: _516  and  _517
REMARK  232  A    between atoms: _517  and  _518
REMARK  233  A    between atoms: _518  and  _519
REMARK                            x       y       z     vdW  Elec       q    Type
REMARK                         _______ _______ _______ _____ _____    ______ ____
ROOT
ATOM      1  O   HOH     1      46.130  31.460  20.144  0.00  0.00    +0.000 OA
ENDROOT
TORSDOF 0
REMARK  Name = ../refined-set-2016/4app/4app_pocket.pdb
REMARK  233 active torsions:
REMARK  status: ('A' for Active; 'I' for Inactive)
REMARK    1  A    between atoms: _1  and  _3
REMARK    2  A    between atoms: _3  and  _4
REMARK    3  A    between atoms: _3  and  _6
REMARK    4  A    between atoms: _6  and  _7
REMARK    5  A    between atoms: _10  and  _12
REMARK    6  A    between atoms: _12  and  _13
REMARK    7  A    between atoms: _15  and  _17
REMARK    8  A    between atoms: _17  and  _18
REMARK    9  A    between atoms: _17  and  _20
REMARK   10  A    between atoms: _20  and  _21
REMARK   11  A    between atoms: _21  and  _22
REMARK   12  A    between atoms: _25  and  _27
REMARK   13  A    between atoms: _27  and  _28
REMARK   14  A    between atoms: _30  and  _32
REMARK   15  A    between atoms: _32  and  _33
REMARK   16  A    between atoms: _32  and  _35
REMARK   17  A    between atoms: _35  and  _36
REMARK   18  A    between atoms: _38  and  _40
REMARK   19  A    between atoms: _40  and  _41
REMARK   20  A    between atoms: _40  and  _43
REMARK   21  A    between atoms: _43  and  _44
REMARK   22  A    between atoms: _47  and  _49
REMARK   23  A    between atoms: _49  and  _50
REMARK   24  A    between atoms: _52  and  _54
REMARK   25  A    between atoms: _54  and  _55
REMARK   26  A    between atoms: _54  and  _57
REMARK   27  A    between atoms: _57  and  _58
REMARK   28  A    between atoms: _61  and  _63
REMARK   29  A    between atoms: _63  and  _64
REMARK   30  A    between atoms: _63  and  _66
REMARK   31  A    between atoms: _69  and  _71
REMARK   32  A    between atoms: _71  and  _72
REMARK   33  A    between atoms: _71  and  _74
REMARK   34  A    between atoms: _76  and  _78
REMARK   35  A    between atoms: _78  and  _79
REMARK   36  A    between atoms: _78  and  _81
REMARK   37  A    between atoms: _81  and  _82
REMARK   38  A    between atoms: _85  and  _87
REMARK   39  A    between atoms: _87  and  _88
REMARK   40  A    between atoms: _87  and  _90
REMARK   41  A    between atoms: _90  and  _91
REMARK   42  A    between atoms: _94  and  _96
REMARK   43  A    between atoms: _96  and  _97
REMARK   44  A    between atoms: _96  and  _99
REMARK   45  A    between atoms: _102  and  _104
REMARK   46  A    between atoms: _104  and  _105
REMARK   47  A    between atoms: _108  and  _110
REMARK   48  A    between atoms: _110  and  _111
REMARK   49  A    between atoms: _110  and  _113
REMARK   50  A    between atoms: _116  and  _118
REMARK   51  A    between atoms: _118  and  _119
REMARK   52  A    between atoms: _118  and  _121
REMARK   53  A    between atoms: _121  and  _122
REMARK   54  A    between atoms: _122  and  _123
REMARK   55  A    between atoms: _123  and  _124
REMARK   56  A    between atoms: _124  and  _125
REMARK   57  A    between atoms: _129  and  _131
REMARK   58  A    between atoms: _131  and  _132
REMARK   59  A    between atoms: _131  and  _134
REMARK   60  A    between atoms: _134  and  _135
REMARK   61  A    between atoms: _135  and  _136
REMARK   62  A    between atoms: _136  and  _137
REMARK   63  A    between atoms: _137  and  _138
REMARK   64  A    between atoms: _142  and  _144
REMARK   65  A    between atoms: _144  and  _145
REMARK   66  A    between atoms: _144  and  _147
REMARK   67  A    between atoms: _147  and  _148
REMARK   68  A    between atoms: _148  and  _149
REMARK   69  A    between atoms: _151  and  _153
REMARK   70  A    between atoms: _153  and  _154
REMARK   71  A    between atoms: _153  and  _156
REMARK   72  A    between atoms: _156  and  _157
REMARK   73  A    between atoms: _160  and  _162
REMARK   74  A    between atoms: _162  and  _163
REMARK   75  A    between atoms: _162  and  _165
REMARK   76  A    between atoms: _165  and  _166
REMARK   77  A    between atoms: _166  and  _167
REMARK   78  A    between atoms: _172  and  _174
REMARK   79  A    between atoms: _174  and  _175
REMARK   80  A    between atoms: _174  and  _177
REMARK   81  A    between atoms: _177  and  _178
REMARK   82  A    between atoms: _178  and  _179
REMARK   83  A    between atoms: _182  and  _184
REMARK   84  A    between atoms: _184  and  _185
REMARK   85  A    between atoms: _184  and  _187
REMARK   86  A    between atoms: _190  and  _192
REMARK   87  A    between atoms: _192  and  _193
REMARK   88  A    between atoms: _192  and  _195
REMARK   89  A    between atoms: _195  and  _196
REMARK   90  A    between atoms: _196  and  _197
REMARK   91  A    between atoms: _200  and  _202
REMARK   92  A    between atoms: _202  and  _203
REMARK   93  A    between atoms: _202  and  _205
REMARK   94  A    between atoms: _205  and  _206
REMARK   95  A    between atoms: _206  and  _207
REMARK   96  A    between atoms: _209  and  _211
REMARK   97  A    between atoms: _211  and  _212
REMARK   98  A    between atoms: _211  and  _214
REMARK   99  A    between atoms: _214  and  _215
REMARK  100  A    between atoms: _218  and  _220
REMARK  101  A    between atoms: _220  and  _221
REMARK  102  A    between atoms: _220  and  _223
REMARK  103  A    between atoms: _226  and  _228
REMARK  104  A    between atoms: _228  and  _229
REMARK  105  A    between atoms: _228  and  _231
REMARK  106  A    between atoms: _234  and  _236
REMARK  107  A    between atoms: _236  and  _237
REMARK  108  A    between atoms: _236  and  _239
REMARK  109  A    between atoms: _239  and  _240
REMARK  110  A    between atoms: _240  and  _241
REMARK  111  A    between atoms: _243  and  _245
REMARK  112  A    between atoms: _245  and  _246
REMARK  113  A    between atoms: _245  and  _248
REMARK  114  A    between atoms: _248  and  _249
REMARK  115  A    between atoms: _249  and  _250
REMARK  116  A    between atoms: _253  and  _255
REMARK  117  A    between atoms: _255  and  _256
REMARK  118  A    between atoms: _255  and  _258
REMARK  119  A    between atoms: _258  and  _259
REMARK  120  A    between atoms: _265  and  _267
REMARK  121  A    between atoms: _267  and  _268
REMARK  122  A    between atoms: _267  and  _270
REMARK  123  A    between atoms: _270  and  _271
REMARK  124  A    between atoms: _274  and  _276
REMARK  125  A    between atoms: _276  and  _277
REMARK  126  A    between atoms: _276  and  _279
REMARK  127  A    between atoms: _279  and  _280
REMARK  128  A    between atoms: _280  and  _281
REMARK  129  A    between atoms: _284  and  _286
REMARK  130  A    between atoms: _286  and  _287
REMARK  131  A    between atoms: _289  and  _291
REMARK  132  A    between atoms: _291  and  _292
REMARK  133  A    between atoms: _294  and  _296
REMARK  134  A    between atoms: _296  and  _297
REMARK  135  A    between atoms: _300  and  _302
REMARK  136  A    between atoms: _302  and  _303
REMARK  137  A    between atoms: _302  and  _305
REMARK  138  A    between atoms: _305  and  _306
REMARK  139  A    between atoms: _309  and  _311
REMARK  140  A    between atoms: _311  and  _312
REMARK  141  A    between atoms: _311  and  _314
REMARK  142  A    between atoms: _314  and  _315
REMARK  143  A    between atoms: _318  and  _320
REMARK  144  A    between atoms: _320  and  _321
REMARK  145  A    between atoms: _320  and  _323
REMARK  146  A    between atoms: _323  and  _324
REMARK  147  A    between atoms: _327  and  _329
REMARK  148  A    between atoms: _329  and  _330
REMARK  149  A    between atoms: _329  and  _332
REMARK  150  A    between atoms: _332  and  _333
REMARK  151  A    between atoms: _336  and  _338
REMARK  152  A    between atoms: _338  and  _339
REMARK  153  A    between atoms: _338  and  _341
REMARK  154  A    between atoms: _341  and  _342
REMARK  155  A    between atoms: _345  and  _347
REMARK  156  A    between atoms: _347  and  _348
REMARK  157  A    between atoms: _347  and  _350
REMARK  158  A    between atoms: _350  and  _351
REMARK  159  A    between atoms: _356  and  _358
REMARK  160  A    between atoms: _358  and  _359
REMARK  161  A    between atoms: _358  and  _361
REMARK  162  A    between atoms: _361  and  _362
REMARK  163  A    between atoms: _365  and  _367
REMARK  164  A    between atoms: _367  and  _368
REMARK  165  A    between atoms: _367  and  _370
REMARK  166  A    between atoms: _370  and  _371
REMARK  167  A    between atoms: _371  and  _372
REMARK  168  A    between atoms: _372  and  _373
REMARK  169  A    between atoms: _373  and  _374
REMARK  170  A    between atoms: _378  and  _380
REMARK  171  A    between atoms: _380  and  _381
REMARK  172  A    between atoms: _380  and  _383
REMARK  173  A    between atoms: _383  and  _384
REMARK  174  A    between atoms: _386  and  _388
REMARK  175  A    between atoms: _388  and  _389
REMARK  176  A    between atoms: _388  and  _391
REMARK  177  A    between atoms: _391  and  _392
REMARK  178  A    between atoms: _395  and  _397
REMARK  179  A    between atoms: _397  and  _398
REMARK  180  A    between atoms: _397  and  _400
REMARK  181  A    between atoms: _400  and  _401
REMARK  182  A    between atoms: _403  and  _405
REMARK  183  A    between atoms: _405  and  _406
REMARK  184  A    between atoms: _405  and  _408
REMARK  185  A    between atoms: _408  and  _409
REMARK  186  A    between atoms: _412  and  _414
REMARK  187  A    between atoms: _414  and  _415
REMARK  188  A    between atoms: _414  and  _417
REMARK  189  A    between atoms: _417  and  _418
REMARK  190  A    between atoms: _421  and  _423
REMARK  191  A    between atoms: _423  and  _424
REMARK  192  A    between atoms: _423  and  _426
REMARK  193  A    between atoms: _426  and  _427
REMARK  194  A    between atoms: _430  and  _432
REMARK  195  A    between atoms: _432  and  _433
REMARK  196  A    between atoms: _432  and  _435
REMARK  197  A    between atoms: _435  and  _436
REMARK  198  A    between atoms: _439  and  _441
REMARK  199  A    between atoms: _441  and  _442
REMARK  200  A    between atoms: _441  and  _444
REMARK  201  A    between atoms: _444  and  _445
REMARK  202  A    between atoms: _447  and  _449
REMARK  203  A    between atoms: _449  and  _450
REMARK  204  A    between atoms: _449  and  _452
REMARK  205  A    between atoms: _452  and  _453
REMARK  206  A    between atoms: _456  and  _458
REMARK  207  A    between atoms: _458  and  _459
REMARK  208  A    between atoms: _458  and  _461
REMARK  209  A    between atoms: _461  and  _462
REMARK  210  A    between atoms: _468  and  _470
REMARK  211  A    between atoms: _470  and  _471
REMARK  212  A    between atoms: _473  and  _475
REMARK  213  A    between atoms: _475  and  _476
REMARK  214  A    between atoms: _475  and  _478
REMARK  215  A    between atoms: _478  and  _479
REMARK  216  A    between atoms: _479  and  _480
REMARK  217  A    between atoms: _482  and  _484
REMARK  218  A    between atoms: _484  and  _485
REMARK  219  A    between atoms: _484  and  _487
REMARK  220  A    between atoms: _487  and  _488
REMARK  221  A    between atoms: _488  and  _489
REMARK  222  A    between atoms: _489  and  _490
REMARK  223  A    between atoms: _499  and  _501
REMARK  224  A    between atoms: _501  and  _502
REMARK  225  A    between atoms: _501  and  _504
REMARK  226  A    between atoms: _504  and  _505
REMARK  227  A    between atoms: _505  and  _506
REMARK  228  A    between atoms: _511  and  _513
REMARK  229  A    between atoms: _513  and  _514
REMARK  230  A    between atoms: _513  and  _516
REMARK  231  A    between atoms: _516  and  _517
REMARK  232  A    between atoms: _517  and  _518
REMARK  233  A    between atoms: _518  and  _519
REMARK                            x       y       z     vdW  Elec       q    Type
REMARK                         _______ _______ _______ _____ _____    ______ ____
ROOT
ATOM      1  O   HOH     1      46.985  34.321  12.710  0.00  0.00    +0.000 OA
ENDROOT
TORSDOF 0
REMARK  Name = ../refined-set-2016/4app/4app_pocket.pdb
REMARK  233 active torsions:
REMARK  status: ('A' for Active; 'I' for Inactive)
REMARK    1  A    between atoms: _1  and  _3
REMARK    2  A    between atoms: _3  and  _4
REMARK    3  A    between atoms: _3  and  _6
REMARK    4  A    between atoms: _6  and  _7
REMARK    5  A    between atoms: _10  and  _12
REMARK    6  A    between atoms: _12  and  _13
REMARK    7  A    between atoms: _15  and  _17
REMARK    8  A    between atoms: _17  and  _18
REMARK    9  A    between atoms: _17  and  _20
REMARK   10  A    between atoms: _20  and  _21
REMARK   11  A    between atoms: _21  and  _22
REMARK   12  A    between atoms: _25  and  _27
REMARK   13  A    between atoms: _27  and  _28
REMARK   14  A    between atoms: _30  and  _32
REMARK   15  A    between atoms: _32  and  _33
REMARK   16  A    between atoms: _32  and  _35
REMARK   17  A    between atoms: _35  and  _36
REMARK   18  A    between atoms: _38  and  _40
REMARK   19  A    between atoms: _40  and  _41
REMARK   20  A    between atoms: _40  and  _43
REMARK   21  A    between atoms: _43  and  _44
REMARK   22  A    between atoms: _47  and  _49
REMARK   23  A    between atoms: _49  and  _50
REMARK   24  A    between atoms: _52  and  _54
REMARK   25  A    between atoms: _54  and  _55
REMARK   26  A    between atoms: _54  and  _57
REMARK   27  A    between atoms: _57  and  _58
REMARK   28  A    between atoms: _61  and  _63
REMARK   29  A    between atoms: _63  and  _64
REMARK   30  A    between atoms: _63  and  _66
REMARK   31  A    between atoms: _69  and  _71
REMARK   32  A    between atoms: _71  and  _72
REMARK   33  A    between atoms: _71  and  _74
REMARK   34  A    between atoms: _76  and  _78
REMARK   35  A    between atoms: _78  and  _79
REMARK   36  A    between atoms: _78  and  _81
REMARK   37  A    between atoms: _81  and  _82
REMARK   38  A    between atoms: _85  and  _87
REMARK   39  A    between atoms: _87  and  _88
REMARK   40  A    between atoms: _87  and  _90
REMARK   41  A    between atoms: _90  and  _91
REMARK   42  A    between atoms: _94  and  _96
REMARK   43  A    between atoms: _96  and  _97
REMARK   44  A    between atoms: _96  and  _99
REMARK   45  A    between atoms: _102  and  _104
REMARK   46  A    between atoms: _104  and  _105
REMARK   47  A    between atoms: _108  and  _110
REMARK   48  A    between atoms: _110  and  _111
REMARK   49  A    between atoms: _110  and  _113
REMARK   50  A    between atoms: _116  and  _118
REMARK   51  A    between atoms: _118  and  _119
REMARK   52  A    between atoms: _118  and  _121
REMARK   53  A    between atoms: _121  and  _122
REMARK   54  A    between atoms: _122  and  _123
REMARK   55  A    between atoms: _123  and  _124
REMARK   56  A    between atoms: _124  and  _125
REMARK   57  A    between atoms: _129  and  _131
REMARK   58  A    between atoms: _131  and  _132
REMARK   59  A    between atoms: _131  and  _134
REMARK   60  A    between atoms: _134  and  _135
REMARK   61  A    between atoms: _135  and  _136
REMARK   62  A    between atoms: _136  and  _137
REMARK   63  A    between atoms: _137  and  _138
REMARK   64  A    between atoms: _142  and  _144
REMARK   65  A    between atoms: _144  and  _145
REMARK   66  A    between atoms: _144  and  _147
REMARK   67  A    between atoms: _147  and  _148
REMARK   68  A    between atoms: _148  and  _149
REMARK   69  A    between atoms: _151  and  _153
REMARK   70  A    between atoms: _153  and  _154
REMARK   71  A    between atoms: _153  and  _156
REMARK   72  A    between atoms: _156  and  _157
REMARK   73  A    between atoms: _160  and  _162
REMARK   74  A    between atoms: _162  and  _163
REMARK   75  A    between atoms: _162  and  _165
REMARK   76  A    between atoms: _165  and  _166
REMARK   77  A    between atoms: _166  and  _167
REMARK   78  A    between atoms: _172  and  _174
REMARK   79  A    between atoms: _174  and  _175
REMARK   80  A    between atoms: _174  and  _177
REMARK   81  A    between atoms: _177  and  _178
REMARK   82  A    between atoms: _178  and  _179
REMARK   83  A    between atoms: _182  and  _184
REMARK   84  A    between atoms: _184  and  _185
REMARK   85  A    between atoms: _184  and  _187
REMARK   86  A    between atoms: _190  and  _192
REMARK   87  A    between atoms: _192  and  _193
REMARK   88  A    between atoms: _192  and  _195
REMARK   89  A    between atoms: _195  and  _196
REMARK   90  A    between atoms: _196  and  _197
REMARK   91  A    between atoms: _200  and  _202
REMARK   92  A    between atoms: _202  and  _203
REMARK   93  A    between atoms: _202  and  _205
REMARK   94  A    between atoms: _205  and  _206
REMARK   95  A    between atoms: _206  and  _207
REMARK   96  A    between atoms: _209  and  _211
REMARK   97  A    between atoms: _211  and  _212
REMARK   98  A    between atoms: _211  and  _214
REMARK   99  A    between atoms: _214  and  _215
REMARK  100  A    between atoms: _218  and  _220
REMARK  101  A    between atoms: _220  and  _221
REMARK  102  A    between atoms: _220  and  _223
REMARK  103  A    between atoms: _226  and  _228
REMARK  104  A    between atoms: _228  and  _229
REMARK  105  A    between atoms: _228  and  _231
REMARK  106  A    between atoms: _234  and  _236
REMARK  107  A    between atoms: _236  and  _237
REMARK  108  A    between atoms: _236  and  _239
REMARK  109  A    between atoms: _239  and  _240
REMARK  110  A    between atoms: _240  and  _241
REMARK  111  A    between atoms: _243  and  _245
REMARK  112  A    between atoms: _245  and  _246
REMARK  113  A    between atoms: _245  and  _248
REMARK  114  A    between atoms: _248  and  _249
REMARK  115  A    between atoms: _249  and  _250
REMARK  116  A    between atoms: _253  and  _255
REMARK  117  A    between atoms: _255  and  _256
REMARK  118  A    between atoms: _255  and  _258
REMARK  119  A    between atoms: _258  and  _259
REMARK  120  A    between atoms: _265  and  _267
REMARK  121  A    between atoms: _267  and  _268
REMARK  122  A    between atoms: _267  and  _270
REMARK  123  A    between atoms: _270  and  _271
REMARK  124  A    between atoms: _274  and  _276
REMARK  125  A    between atoms: _276  and  _277
REMARK  126  A    between atoms: _276  and  _279
REMARK  127  A    between atoms: _279  and  _280
REMARK  128  A    between atoms: _280  and  _281
REMARK  129  A    between atoms: _284  and  _286
REMARK  130  A    between atoms: _286  and  _287
REMARK  131  A    between atoms: _289  and  _291
REMARK  132  A    between atoms: _291  and  _292
REMARK  133  A    between atoms: _294  and  _296
REMARK  134  A    between atoms: _296  and  _297
REMARK  135  A    between atoms: _300  and  _302
REMARK  136  A    between atoms: _302  and  _303
REMARK  137  A    between atoms: _302  and  _305
REMARK  138  A    between atoms: _305  and  _306
REMARK  139  A    between atoms: _309  and  _311
REMARK  140  A    between atoms: _311  and  _312
REMARK  141  A    between atoms: _311  and  _314
REMARK  142  A    between atoms: _314  and  _315
REMARK  143  A    between atoms: _318  and  _320
REMARK  144  A    between atoms: _320  and  _321
REMARK  145  A    between atoms: _320  and  _323
REMARK  146  A    between atoms: _323  and  _324
REMARK  147  A    between atoms: _327  and  _329
REMARK  148  A    between atoms: _329  and  _330
REMARK  149  A    between atoms: _329  and  _332
REMARK  150  A    between atoms: _332  and  _333
REMARK  151  A    between atoms: _336  and  _338
REMARK  152  A    between atoms: _338  and  _339
REMARK  153  A    between atoms: _338  and  _341
REMARK  154  A    between atoms: _341  and  _342
REMARK  155  A    between atoms: _345  and  _347
REMARK  156  A    between atoms: _347  and  _348
REMARK  157  A    between atoms: _347  and  _350
REMARK  158  A    between atoms: _350  and  _351
REMARK  159  A    between atoms: _356  and  _358
REMARK  160  A    between atoms: _358  and  _359
REMARK  161  A    between atoms: _358  and  _361
REMARK  162  A    between atoms: _361  and  _362
REMARK  163  A    between atoms: _365  and  _367
REMARK  164  A    between atoms: _367  and  _368
REMARK  165  A    between atoms: _367  and  _370
REMARK  166  A    between atoms: _370  and  _371
REMARK  167  A    between atoms: _371  and  _372
REMARK  168  A    between atoms: _372  and  _373
REMARK  169  A    between atoms: _373  and  _374
REMARK  170  A    between atoms: _378  and  _380
REMARK  171  A    between atoms: _380  and  _381
REMARK  172  A    between atoms: _380  and  _383
REMARK  173  A    between atoms: _383  and  _384
REMARK  174  A    between atoms: _386  and  _388
REMARK  175  A    between atoms: _388  and  _389
REMARK  176  A    between atoms: _388  and  _391
REMARK  177  A    between atoms: _391  and  _392
REMARK  178  A    between atoms: _395  and  _397
REMARK  179  A    between atoms: _397  and  _398
REMARK  180  A    between atoms: _397  and  _400
REMARK  181  A    between atoms: _400  and  _401
REMARK  182  A    between atoms: _403  and  _405
REMARK  183  A    between atoms: _405  and  _406
REMARK  184  A    between atoms: _405  and  _408
REMARK  185  A    between atoms: _408  and  _409
REMARK  186  A    between atoms: _412  and  _414
REMARK  187  A    between atoms: _414  and  _415
REMARK  188  A    between atoms: _414  and  _417
REMARK  189  A    between atoms: _417  and  _418
REMARK  190  A    between atoms: _421  and  _423
REMARK  191  A    between atoms: _423  and  _424
REMARK  192  A    between atoms: _423  and  _426
REMARK  193  A    between atoms: _426  and  _427
REMARK  194  A    between atoms: _430  and  _432
REMARK  195  A    between atoms: _432  and  _433
REMARK  196  A    between atoms: _432  and  _435
REMARK  197  A    between atoms: _435  and  _436
REMARK  198  A    between atoms: _439  and  _441
REMARK  199  A    between atoms: _441  and  _442
REMARK  200  A    between atoms: _441  and  _444
REMARK  201  A    between atoms: _444  and  _445
REMARK  202  A    between atoms: _447  and  _449
REMARK  203  A    between atoms: _449  and  _450
REMARK  204  A    between atoms: _449  and  _452
REMARK  205  A    between atoms: _452  and  _453
REMARK  206  A    between atoms: _456  and  _458
REMARK  207  A    between atoms: _458  and  _459
REMARK  208  A    between atoms: _458  and  _461
REMARK  209  A    between atoms: _461  and  _462
REMARK  210  A    between atoms: _468  and  _470
REMARK  211  A    between atoms: _470  and  _471
REMARK  212  A    between atoms: _473  and  _475
REMARK  213  A    between atoms: _475  and  _476
REMARK  214  A    between atoms: _475  and  _478
REMARK  215  A    between atoms: _478  and  _479
REMARK  216  A    between atoms: _479  and  _480
REMARK  217  A    between atoms: _482  and  _484
REMARK  218  A    between atoms: _484  and  _485
REMARK  219  A    between atoms: _484  and  _487
REMARK  220  A    between atoms: _487  and  _488
REMARK  221  A    between atoms: _488  and  _489
REMARK  222  A    between atoms: _489  and  _490
REMARK  223  A    between atoms: _499  and  _501
REMARK  224  A    between atoms: _501  and  _502
REMARK  225  A    between atoms: _501  and  _504
REMARK  226  A    between atoms: _504  and  _505
REMARK  227  A    between atoms: _505  and  _506
REMARK  228  A    between atoms: _511  and  _513
REMARK  229  A    between atoms: _513  and  _514
REMARK  230  A    between atoms: _513  and  _516
REMARK  231  A    between atoms: _516  and  _517
REMARK  232  A    between atoms: _517  and  _518
REMARK  233  A    between atoms: _518  and  _519
REMARK                            x       y       z     vdW  Elec       q    Type
REMARK                         _______ _______ _______ _____ _____    ______ ____
ROOT
ATOM      1  O   HOH     1      43.059  30.768  18.910  0.00  0.00    +0.000 OA
ENDROOT
TORSDOF 0
REMARK  Name = ../refined-set-2016/4app/4app_pocket.pdb
REMARK  233 active torsions:
REMARK  status: ('A' for Active; 'I' for Inactive)
REMARK    1  A    between atoms: _1  and  _3
REMARK    2  A    between atoms: _3  and  _4
REMARK    3  A    between atoms: _3  and  _6
REMARK    4  A    between atoms: _6  and  _7
REMARK    5  A    between atoms: _10  and  _12
REMARK    6  A    between atoms: _12  and  _13
REMARK    7  A    between atoms: _15  and  _17
REMARK    8  A    between atoms: _17  and  _18
REMARK    9  A    between atoms: _17  and  _20
REMARK   10  A    between atoms: _20  and  _21
REMARK   11  A    between atoms: _21  and  _22
REMARK   12  A    between atoms: _25  and  _27
REMARK   13  A    between atoms: _27  and  _28
REMARK   14  A    between atoms: _30  and  _32
REMARK   15  A    between atoms: _32  and  _33
REMARK   16  A    between atoms: _32  and  _35
REMARK   17  A    between atoms: _35  and  _36
REMARK   18  A    between atoms: _38  and  _40
REMARK   19  A    between atoms: _40  and  _41
REMARK   20  A    between atoms: _40  and  _43
REMARK   21  A    between atoms: _43  and  _44
REMARK   22  A    between atoms: _47  and  _49
REMARK   23  A    between atoms: _49  and  _50
REMARK   24  A    between atoms: _52  and  _54
REMARK   25  A    between atoms: _54  and  _55
REMARK   26  A    between atoms: _54  and  _57
REMARK   27  A    between atoms: _57  and  _58
REMARK   28  A    between atoms: _61  and  _63
REMARK   29  A    between atoms: _63  and  _64
REMARK   30  A    between atoms: _63  and  _66
REMARK   31  A    between atoms: _69  and  _71
REMARK   32  A    between atoms: _71  and  _72
REMARK   33  A    between atoms: _71  and  _74
REMARK   34  A    between atoms: _76  and  _78
REMARK   35  A    between atoms: _78  and  _79
REMARK   36  A    between atoms: _78  and  _81
REMARK   37  A    between atoms: _81  and  _82
REMARK   38  A    between atoms: _85  and  _87
REMARK   39  A    between atoms: _87  and  _88
REMARK   40  A    between atoms: _87  and  _90
REMARK   41  A    between atoms: _90  and  _91
REMARK   42  A    between atoms: _94  and  _96
REMARK   43  A    between atoms: _96  and  _97
REMARK   44  A    between atoms: _96  and  _99
REMARK   45  A    between atoms: _102  and  _104
REMARK   46  A    between atoms: _104  and  _105
REMARK   47  A    between atoms: _108  and  _110
REMARK   48  A    between atoms: _110  and  _111
REMARK   49  A    between atoms: _110  and  _113
REMARK   50  A    between atoms: _116  and  _118
REMARK   51  A    between atoms: _118  and  _119
REMARK   52  A    between atoms: _118  and  _121
REMARK   53  A    between atoms: _121  and  _122
REMARK   54  A    between atoms: _122  and  _123
REMARK   55  A    between atoms: _123  and  _124
REMARK   56  A    between atoms: _124  and  _125
REMARK   57  A    between atoms: _129  and  _131
REMARK   58  A    between atoms: _131  and  _132
REMARK   59  A    between atoms: _131  and  _134
REMARK   60  A    between atoms: _134  and  _135
REMARK   61  A    between atoms: _135  and  _136
REMARK   62  A    between atoms: _136  and  _137
REMARK   63  A    between atoms: _137  and  _138
REMARK   64  A    between atoms: _142  and  _144
REMARK   65  A    between atoms: _144  and  _145
REMARK   66  A    between atoms: _144  and  _147
REMARK   67  A    between atoms: _147  and  _148
REMARK   68  A    between atoms: _148  and  _149
REMARK   69  A    between atoms: _151  and  _153
REMARK   70  A    between atoms: _153  and  _154
REMARK   71  A    between atoms: _153  and  _156
REMARK   72  A    between atoms: _156  and  _157
REMARK   73  A    between atoms: _160  and  _162
REMARK   74  A    between atoms: _162  and  _163
REMARK   75  A    between atoms: _162  and  _165
REMARK   76  A    between atoms: _165  and  _166
REMARK   77  A    between atoms: _166  and  _167
REMARK   78  A    between atoms: _172  and  _174
REMARK   79  A    between atoms: _174  and  _175
REMARK   80  A    between atoms: _174  and  _177
REMARK   81  A    between atoms: _177  and  _178
REMARK   82  A    between atoms: _178  and  _179
REMARK   83  A    between atoms: _182  and  _184
REMARK   84  A    between atoms: _184  and  _185
REMARK   85  A    between atoms: _184  and  _187
REMARK   86  A    between atoms: _190  and  _192
REMARK   87  A    between atoms: _192  and  _193
REMARK   88  A    between atoms: _192  and  _195
REMARK   89  A    between atoms: _195  and  _196
REMARK   90  A    between atoms: _196  and  _197
REMARK   91  A    between atoms: _200  and  _202
REMARK   92  A    between atoms: _202  and  _203
REMARK   93  A    between atoms: _202  and  _205
REMARK   94  A    between atoms: _205  and  _206
REMARK   95  A    between atoms: _206  and  _207
REMARK   96  A    between atoms: _209  and  _211
REMARK   97  A    between atoms: _211  and  _212
REMARK   98  A    between atoms: _211  and  _214
REMARK   99  A    between atoms: _214  and  _215
REMARK  100  A    between atoms: _218  and  _220
REMARK  101  A    between atoms: _220  and  _221
REMARK  102  A    between atoms: _220  and  _223
REMARK  103  A    between atoms: _226  and  _228
REMARK  104  A    between atoms: _228  and  _229
REMARK  105  A    between atoms: _228  and  _231
REMARK  106  A    between atoms: _234  and  _236
REMARK  107  A    between atoms: _236  and  _237
REMARK  108  A    between atoms: _236  and  _239
REMARK  109  A    between atoms: _239  and  _240
REMARK  110  A    between atoms: _240  and  _241
REMARK  111  A    between atoms: _243  and  _245
REMARK  112  A    between atoms: _245  and  _246
REMARK  113  A    between atoms: _245  and  _248
REMARK  114  A    between atoms: _248  and  _249
REMARK  115  A    between atoms: _249  and  _250
REMARK  116  A    between atoms: _253  and  _255
REMARK  117  A    between atoms: _255  and  _256
REMARK  118  A    between atoms: _255  and  _258
REMARK  119  A    between atoms: _258  and  _259
REMARK  120  A    between atoms: _265  and  _267
REMARK  121  A    between atoms: _267  and  _268
REMARK  122  A    between atoms: _267  and  _270
REMARK  123  A    between atoms: _270  and  _271
REMARK  124  A    between atoms: _274  and  _276
REMARK  125  A    between atoms: _276  and  _277
REMARK  126  A    between atoms: _276  and  _279
REMARK  127  A    between atoms: _279  and  _280
REMARK  128  A    between atoms: _280  and  _281
REMARK  129  A    between atoms: _284  and  _286
REMARK  130  A    between atoms: _286  and  _287
REMARK  131  A    between atoms: _289  and  _291
REMARK  132  A    between atoms: _291  and  _292
REMARK  133  A    between atoms: _294  and  _296
REMARK  134  A    between atoms: _296  and  _297
REMARK  135  A    between atoms: _300  and  _302
REMARK  136  A    between atoms: _302  and  _303
REMARK  137  A    between atoms: _302  and  _305
REMARK  138  A    between atoms: _305  and  _306
REMARK  139  A    between atoms: _309  and  _311
REMARK  140  A    between atoms: _311  and  _312
REMARK  141  A    between atoms: _311  and  _314
REMARK  142  A    between atoms: _314  and  _315
REMARK  143  A    between atoms: _318  and  _320
REMARK  144  A    between atoms: _320  and  _321
REMARK  145  A    between atoms: _320  and  _323
REMARK  146  A    between atoms: _323  and  _324
REMARK  147  A    between atoms: _327  and  _329
REMARK  148  A    between atoms: _329  and  _330
REMARK  149  A    between atoms: _329  and  _332
REMARK  150  A    between atoms: _332  and  _333
REMARK  151  A    between atoms: _336  and  _338
REMARK  152  A    between atoms: _338  and  _339
REMARK  153  A    between atoms: _338  and  _341
REMARK  154  A    between atoms: _341  and  _342
REMARK  155  A    between atoms: _345  and  _347
REMARK  156  A    between atoms: _347  and  _348
REMARK  157  A    between atoms: _347  and  _350
REMARK  158  A    between atoms: _350  and  _351
REMARK  159  A    between atoms: _356  and  _358
REMARK  160  A    between atoms: _358  and  _359
REMARK  161  A    between atoms: _358  and  _361
REMARK  162  A    between atoms: _361  and  _362
REMARK  163  A    between atoms: _365  and  _367
REMARK  164  A    between atoms: _367  and  _368
REMARK  165  A    between atoms: _367  and  _370
REMARK  166  A    between atoms: _370  and  _371
REMARK  167  A    between atoms: _371  and  _372
REMARK  168  A    between atoms: _372  and  _373
REMARK  169  A    between atoms: _373  and  _374
REMARK  170  A    between atoms: _378  and  _380
REMARK  171  A    between atoms: _380  and  _381
REMARK  172  A    between atoms: _380  and  _383
REMARK  173  A    between atoms: _383  and  _384
REMARK  174  A    between atoms: _386  and  _388
REMARK  175  A    between atoms: _388  and  _389
REMARK  176  A    between atoms: _388  and  _391
REMARK  177  A    between atoms: _391  and  _392
REMARK  178  A    between atoms: _395  and  _397
REMARK  179  A    between atoms: _397  and  _398
REMARK  180  A    between atoms: _397  and  _400
REMARK  181  A    between atoms: _400  and  _401
REMARK  182  A    between atoms: _403  and  _405
REMARK  183  A    between atoms: _405  and  _406
REMARK  184  A    between atoms: _405  and  _408
REMARK  185  A    between atoms: _408  and  _409
REMARK  186  A    between atoms: _412  and  _414
REMARK  187  A    between atoms: _414  and  _415
REMARK  188  A    between atoms: _414  and  _417
REMARK  189  A    between atoms: _417  and  _418
REMARK  190  A    between atoms: _421  and  _423
REMARK  191  A    between atoms: _423  and  _424
REMARK  192  A    between atoms: _423  and  _426
REMARK  193  A    between atoms: _426  and  _427
REMARK  194  A    between atoms: _430  and  _432
REMARK  195  A    between atoms: _432  and  _433
REMARK  196  A    between atoms: _432  and  _435
REMARK  197  A    between atoms: _435  and  _436
REMARK  198  A    between atoms: _439  and  _441
REMARK  199  A    between atoms: _441  and  _442
REMARK  200  A    between atoms: _441  and  _444
REMARK  201  A    between atoms: _444  and  _445
REMARK  202  A    between atoms: _447  and  _449
REMARK  203  A    between atoms: _449  and  _450
REMARK  204  A    between atoms: _449  and  _452
REMARK  205  A    between atoms: _452  and  _453
REMARK  206  A    between atoms: _456  and  _458
REMARK  207  A    between atoms: _458  and  _459
REMARK  208  A    between atoms: _458  and  _461
REMARK  209  A    between atoms: _461  and  _462
REMARK  210  A    between atoms: _468  and  _470
REMARK  211  A    between atoms: _470  and  _471
REMARK  212  A    between atoms: _473  and  _475
REMARK  213  A    between atoms: _475  and  _476
REMARK  214  A    between atoms: _475  and  _478
REMARK  215  A    between atoms: _478  and  _479
REMARK  216  A    between atoms: _479  and  _480
REMARK  217  A    between atoms: _482  and  _484
REMARK  218  A    between atoms: _484  and  _485
REMARK  219  A    between atoms: _484  and  _487
REMARK  220  A    between atoms: _487  and  _488
REMARK  221  A    between atoms: _488  and  _489
REMARK  222  A    between atoms: _489  and  _490
REMARK  223  A    between atoms: _499  and  _501
REMARK  224  A    between atoms: _501  and  _502
REMARK  225  A    between atoms: _501  and  _504
REMARK  226  A    between atoms: _504  and  _505
REMARK  227  A    between atoms: _505  and  _506
REMARK  228  A    between atoms: _511  and  _513
REMARK  229  A    between atoms: _513  and  _514
REMARK  230  A    between atoms: _513  and  _516
REMARK  231  A    between atoms: _516  and  _517
REMARK  232  A    between atoms: _517  and  _518
REMARK  233  A    between atoms: _518  and  _519
REMARK                            x       y       z     vdW  Elec       q    Type
REMARK                         _______ _______ _______ _____ _____    ______ ____
ROOT
ATOM      1  O   HOH     1      44.294  29.998  15.117  0.00  0.00    +0.000 OA
ENDROOT
TORSDOF 0
REMARK  Name = ../refined-set-2016/4app/4app_pocket.pdb
REMARK  233 active torsions:
REMARK  status: ('A' for Active; 'I' for Inactive)
REMARK    1  A    between atoms: _1  and  _3
REMARK    2  A    between atoms: _3  and  _4
REMARK    3  A    between atoms: _3  and  _6
REMARK    4  A    between atoms: _6  and  _7
REMARK    5  A    between atoms: _10  and  _12
REMARK    6  A    between atoms: _12  and  _13
REMARK    7  A    between atoms: _15  and  _17
REMARK    8  A    between atoms: _17  and  _18
REMARK    9  A    between atoms: _17  and  _20
REMARK   10  A    between atoms: _20  and  _21
REMARK   11  A    between atoms: _21  and  _22
REMARK   12  A    between atoms: _25  and  _27
REMARK   13  A    between atoms: _27  and  _28
REMARK   14  A    between atoms: _30  and  _32
REMARK   15  A    between atoms: _32  and  _33
REMARK   16  A    between atoms: _32  and  _35
REMARK   17  A    between atoms: _35  and  _36
REMARK   18  A    between atoms: _38  and  _40
REMARK   19  A    between atoms: _40  and  _41
REMARK   20  A    between atoms: _40  and  _43
REMARK   21  A    between atoms: _43  and  _44
REMARK   22  A    between atoms: _47  and  _49
REMARK   23  A    between atoms: _49  and  _50
REMARK   24  A    between atoms: _52  and  _54
REMARK   25  A    between atoms: _54  and  _55
REMARK   26  A    between atoms: _54  and  _57
REMARK   27  A    between atoms: _57  and  _58
REMARK   28  A    between atoms: _61  and  _63
REMARK   29  A    between atoms: _63  and  _64
REMARK   30  A    between atoms: _63  and  _66
REMARK   31  A    between atoms: _69  and  _71
REMARK   32  A    between atoms: _71  and  _72
REMARK   33  A    between atoms: _71  and  _74
REMARK   34  A    between atoms: _76  and  _78
REMARK   35  A    between atoms: _78  and  _79
REMARK   36  A    between atoms: _78  and  _81
REMARK   37  A    between atoms: _81  and  _82
REMARK   38  A    between atoms: _85  and  _87
REMARK   39  A    between atoms: _87  and  _88
REMARK   40  A    between atoms: _87  and  _90
REMARK   41  A    between atoms: _90  and  _91
REMARK   42  A    between atoms: _94  and  _96
REMARK   43  A    between atoms: _96  and  _97
REMARK   44  A    between atoms: _96  and  _99
REMARK   45  A    between atoms: _102  and  _104
REMARK   46  A    between atoms: _104  and  _105
REMARK   47  A    between atoms: _108  and  _110
REMARK   48  A    between atoms: _110  and  _111
REMARK   49  A    between atoms: _110  and  _113
REMARK   50  A    between atoms: _116  and  _118
REMARK   51  A    between atoms: _118  and  _119
REMARK   52  A    between atoms: _118  and  _121
REMARK   53  A    between atoms: _121  and  _122
REMARK   54  A    between atoms: _122  and  _123
REMARK   55  A    between atoms: _123  and  _124
REMARK   56  A    between atoms: _124  and  _125
REMARK   57  A    between atoms: _129  and  _131
REMARK   58  A    between atoms: _131  and  _132
REMARK   59  A    between atoms: _131  and  _134
REMARK   60  A    between atoms: _134  and  _135
REMARK   61  A    between atoms: _135  and  _136
REMARK   62  A    between atoms: _136  and  _137
REMARK   63  A    between atoms: _137  and  _138
REMARK   64  A    between atoms: _142  and  _144
REMARK   65  A    between atoms: _144  and  _145
REMARK   66  A    between atoms: _144  and  _147
REMARK   67  A    between atoms: _147  and  _148
REMARK   68  A    between atoms: _148  and  _149
REMARK   69  A    between atoms: _151  and  _153
REMARK   70  A    between atoms: _153  and  _154
REMARK   71  A    between atoms: _153  and  _156
REMARK   72  A    between atoms: _156  and  _157
REMARK   73  A    between atoms: _160  and  _162
REMARK   74  A    between atoms: _162  and  _163
REMARK   75  A    between atoms: _162  and  _165
REMARK   76  A    between atoms: _165  and  _166
REMARK   77  A    between atoms: _166  and  _167
REMARK   78  A    between atoms: _172  and  _174
REMARK   79  A    between atoms: _174  and  _175
REMARK   80  A    between atoms: _174  and  _177
REMARK   81  A    between atoms: _177  and  _178
REMARK   82  A    between atoms: _178  and  _179
REMARK   83  A    between atoms: _182  and  _184
REMARK   84  A    between atoms: _184  and  _185
REMARK   85  A    between atoms: _184  and  _187
REMARK   86  A    between atoms: _190  and  _192
REMARK   87  A    between atoms: _192  and  _193
REMARK   88  A    between atoms: _192  and  _195
REMARK   89  A    between atoms: _195  and  _196
REMARK   90  A    between atoms: _196  and  _197
REMARK   91  A    between atoms: _200  and  _202
REMARK   92  A    between atoms: _202  and  _203
REMARK   93  A    between atoms: _202  and  _205
REMARK   94  A    between atoms: _205  and  _206
REMARK   95  A    between atoms: _206  and  _207
REMARK   96  A    between atoms: _209  and  _211
REMARK   97  A    between atoms: _211  and  _212
REMARK   98  A    between atoms: _211  and  _214
REMARK   99  A    between atoms: _214  and  _215
REMARK  100  A    between atoms: _218  and  _220
REMARK  101  A    between atoms: _220  and  _221
REMARK  102  A    between atoms: _220  and  _223
REMARK  103  A    between atoms: _226  and  _228
REMARK  104  A    between atoms: _228  and  _229
REMARK  105  A    between atoms: _228  and  _231
REMARK  106  A    between atoms: _234  and  _236
REMARK  107  A    between atoms: _236  and  _237
REMARK  108  A    between atoms: _236  and  _239
REMARK  109  A    between atoms: _239  and  _240
REMARK  110  A    between atoms: _240  and  _241
REMARK  111  A    between atoms: _243  and  _245
REMARK  112  A    between atoms: _245  and  _246
REMARK  113  A    between atoms: _245  and  _248
REMARK  114  A    between atoms: _248  and  _249
REMARK  115  A    between atoms: _249  and  _250
REMARK  116  A    between atoms: _253  and  _255
REMARK  117  A    between atoms: _255  and  _256
REMARK  118  A    between atoms: _255  and  _258
REMARK  119  A    between atoms: _258  and  _259
REMARK  120  A    between atoms: _265  and  _267
REMARK  121  A    between atoms: _267  and  _268
REMARK  122  A    between atoms: _267  and  _270
REMARK  123  A    between atoms: _270  and  _271
REMARK  124  A    between atoms: _274  and  _276
REMARK  125  A    between atoms: _276  and  _277
REMARK  126  A    between atoms: _276  and  _279
REMARK  127  A    between atoms: _279  and  _280
REMARK  128  A    between atoms: _280  and  _281
REMARK  129  A    between atoms: _284  and  _286
REMARK  130  A    between atoms: _286  and  _287
REMARK  131  A    between atoms: _289  and  _291
REMARK  132  A    between atoms: _291  and  _292
REMARK  133  A    between atoms: _294  and  _296
REMARK  134  A    between atoms: _296  and  _297
REMARK  135  A    between atoms: _300  and  _302
REMARK  136  A    between atoms: _302  and  _303
REMARK  137  A    between atoms: _302  and  _305
REMARK  138  A    between atoms: _305  and  _306
REMARK  139  A    between atoms: _309  and  _311
REMARK  140  A    between atoms: _311  and  _312
REMARK  141  A    between atoms: _311  and  _314
REMARK  142  A    between atoms: _314  and  _315
REMARK  143  A    between atoms: _318  and  _320
REMARK  144  A    between atoms: _320  and  _321
REMARK  145  A    between atoms: _320  and  _323
REMARK  146  A    between atoms: _323  and  _324
REMARK  147  A    between atoms: _327  and  _329
REMARK  148  A    between atoms: _329  and  _330
REMARK  149  A    between atoms: _329  and  _332
REMARK  150  A    between atoms: _332  and  _333
REMARK  151  A    between atoms: _336  and  _338
REMARK  152  A    between atoms: _338  and  _339
REMARK  153  A    between atoms: _338  and  _341
REMARK  154  A    between atoms: _341  and  _342
REMARK  155  A    between atoms: _345  and  _347
REMARK  156  A    between atoms: _347  and  _348
REMARK  157  A    between atoms: _347  and  _350
REMARK  158  A    between atoms: _350  and  _351
REMARK  159  A    between atoms: _356  and  _358
REMARK  160  A    between atoms: _358  and  _359
REMARK  161  A    between atoms: _358  and  _361
REMARK  162  A    between atoms: _361  and  _362
REMARK  163  A    between atoms: _365  and  _367
REMARK  164  A    between atoms: _367  and  _368
REMARK  165  A    between atoms: _367  and  _370
REMARK  166  A    between atoms: _370  and  _371
REMARK  167  A    between atoms: _371  and  _372
REMARK  168  A    between atoms: _372  and  _373
REMARK  169  A    between atoms: _373  and  _374
REMARK  170  A    between atoms: _378  and  _380
REMARK  171  A    between atoms: _380  and  _381
REMARK  172  A    between atoms: _380  and  _383
REMARK  173  A    between atoms: _383  and  _384
REMARK  174  A    between atoms: _386  and  _388
REMARK  175  A    between atoms: _388  and  _389
REMARK  176  A    between atoms: _388  and  _391
REMARK  177  A    between atoms: _391  and  _392
REMARK  178  A    between atoms: _395  and  _397
REMARK  179  A    between atoms: _397  and  _398
REMARK  180  A    between atoms: _397  and  _400
REMARK  181  A    between atoms: _400  and  _401
REMARK  182  A    between atoms: _403  and  _405
REMARK  183  A    between atoms: _405  and  _406
REMARK  184  A    between atoms: _405  and  _408
REMARK  185  A    between atoms: _408  and  _409
REMARK  186  A    between atoms: _412  and  _414
REMARK  187  A    between atoms: _414  and  _415
REMARK  188  A    between atoms: _414  and  _417
REMARK  189  A    between atoms: _417  and  _418
REMARK  190  A    between atoms: _421  and  _423
REMARK  191  A    between atoms: _423  and  _424
REMARK  192  A    between atoms: _423  and  _426
REMARK  193  A    between atoms: _426  and  _427
REMARK  194  A    between atoms: _430  and  _432
REMARK  195  A    between atoms: _432  and  _433
REMARK  196  A    between atoms: _432  and  _435
REMARK  197  A    between atoms: _435  and  _436
REMARK  198  A    between atoms: _439  and  _441
REMARK  199  A    between atoms: _441  and  _442
REMARK  200  A    between atoms: _441  and  _444
REMARK  201  A    between atoms: _444  and  _445
REMARK  202  A    between atoms: _447  and  _449
REMARK  203  A    between atoms: _449  and  _450
REMARK  204  A    between atoms: _449  and  _452
REMARK  205  A    between atoms: _452  and  _453
REMARK  206  A    between atoms: _456  and  _458
REMARK  207  A    between atoms: _458  and  _459
REMARK  208  A    between atoms: _458  and  _461
REMARK  209  A    between atoms: _461  and  _462
REMARK  210  A    between atoms: _468  and  _470
REMARK  211  A    between atoms: _470  and  _471
REMARK  212  A    between atoms: _473  and  _475
REMARK  213  A    between atoms: _475  and  _476
REMARK  214  A    between atoms: _475  and  _478
REMARK  215  A    between atoms: _478  and  _479
REMARK  216  A    between atoms: _479  and  _480
REMARK  217  A    between atoms: _482  and  _484
REMARK  218  A    between atoms: _484  and  _485
REMARK  219  A    between atoms: _484  and  _487
REMARK  220  A    between atoms: _487  and  _488
REMARK  221  A    between atoms: _488  and  _489
REMARK  222  A    between atoms: _489  and  _490
REMARK  223  A    between atoms: _499  and  _501
REMARK  224  A    between atoms: _501  and  _502
REMARK  225  A    between atoms: _501  and  _504
REMARK  226  A    between atoms: _504  and  _505
REMARK  227  A    between atoms: _505  and  _506
REMARK  228  A    between atoms: _511  and  _513
REMARK  229  A    between atoms: _513  and  _514
REMARK  230  A    between atoms: _513  and  _516
REMARK  231  A    between atoms: _516  and  _517
REMARK  232  A    between atoms: _517  and  _518
REMARK  233  A    between atoms: _518  and  _519
REMARK                            x       y       z     vdW  Elec       q    Type
REMARK                         _______ _______ _______ _____ _____    ______ ____
ROOT
ATOM      1  O   HOH     1      42.826  18.389  29.647  0.00  0.00    +0.000 OA
ENDROOT
TORSDOF 0
REMARK  Name = ../refined-set-2016/4app/4app_pocket.pdb
REMARK  233 active torsions:
REMARK  status: ('A' for Active; 'I' for Inactive)
REMARK    1  A    between atoms: _1  and  _3
REMARK    2  A    between atoms: _3  and  _4
REMARK    3  A    between atoms: _3  and  _6
REMARK    4  A    between atoms: _6  and  _7
REMARK    5  A    between atoms: _10  and  _12
REMARK    6  A    between atoms: _12  and  _13
REMARK    7  A    between atoms: _15  and  _17
REMARK    8  A    between atoms: _17  and  _18
REMARK    9  A    between atoms: _17  and  _20
REMARK   10  A    between atoms: _20  and  _21
REMARK   11  A    between atoms: _21  and  _22
REMARK   12  A    between atoms: _25  and  _27
REMARK   13  A    between atoms: _27  and  _28
REMARK   14  A    between atoms: _30  and  _32
REMARK   15  A    between atoms: _32  and  _33
REMARK   16  A    between atoms: _32  and  _35
REMARK   17  A    between atoms: _35  and  _36
REMARK   18  A    between atoms: _38  and  _40
REMARK   19  A    between atoms: _40  and  _41
REMARK   20  A    between atoms: _40  and  _43
REMARK   21  A    between atoms: _43  and  _44
REMARK   22  A    between atoms: _47  and  _49
REMARK   23  A    between atoms: _49  and  _50
REMARK   24  A    between atoms: _52  and  _54
REMARK   25  A    between atoms: _54  and  _55
REMARK   26  A    between atoms: _54  and  _57
REMARK   27  A    between atoms: _57  and  _58
REMARK   28  A    between atoms: _61  and  _63
REMARK   29  A    between atoms: _63  and  _64
REMARK   30  A    between atoms: _63  and  _66
REMARK   31  A    between atoms: _69  and  _71
REMARK   32  A    between atoms: _71  and  _72
REMARK   33  A    between atoms: _71  and  _74
REMARK   34  A    between atoms: _76  and  _78
REMARK   35  A    between atoms: _78  and  _79
REMARK   36  A    between atoms: _78  and  _81
REMARK   37  A    between atoms: _81  and  _82
REMARK   38  A    between atoms: _85  and  _87
REMARK   39  A    between atoms: _87  and  _88
REMARK   40  A    between atoms: _87  and  _90
REMARK   41  A    between atoms: _90  and  _91
REMARK   42  A    between atoms: _94  and  _96
REMARK   43  A    between atoms: _96  and  _97
REMARK   44  A    between atoms: _96  and  _99
REMARK   45  A    between atoms: _102  and  _104
REMARK   46  A    between atoms: _104  and  _105
REMARK   47  A    between atoms: _108  and  _110
REMARK   48  A    between atoms: _110  and  _111
REMARK   49  A    between atoms: _110  and  _113
REMARK   50  A    between atoms: _116  and  _118
REMARK   51  A    between atoms: _118  and  _119
REMARK   52  A    between atoms: _118  and  _121
REMARK   53  A    between atoms: _121  and  _122
REMARK   54  A    between atoms: _122  and  _123
REMARK   55  A    between atoms: _123  and  _124
REMARK   56  A    between atoms: _124  and  _125
REMARK   57  A    between atoms: _129  and  _131
REMARK   58  A    between atoms: _131  and  _132
REMARK   59  A    between atoms: _131  and  _134
REMARK   60  A    between atoms: _134  and  _135
REMARK   61  A    between atoms: _135  and  _136
REMARK   62  A    between atoms: _136  and  _137
REMARK   63  A    between atoms: _137  and  _138
REMARK   64  A    between atoms: _142  and  _144
REMARK   65  A    between atoms: _144  and  _145
REMARK   66  A    between atoms: _144  and  _147
REMARK   67  A    between atoms: _147  and  _148
REMARK   68  A    between atoms: _148  and  _149
REMARK   69  A    between atoms: _151  and  _153
REMARK   70  A    between atoms: _153  and  _154
REMARK   71  A    between atoms: _153  and  _156
REMARK   72  A    between atoms: _156  and  _157
REMARK   73  A    between atoms: _160  and  _162
REMARK   74  A    between atoms: _162  and  _163
REMARK   75  A    between atoms: _162  and  _165
REMARK   76  A    between atoms: _165  and  _166
REMARK   77  A    between atoms: _166  and  _167
REMARK   78  A    between atoms: _172  and  _174
REMARK   79  A    between atoms: _174  and  _175
REMARK   80  A    between atoms: _174  and  _177
REMARK   81  A    between atoms: _177  and  _178
REMARK   82  A    between atoms: _178  and  _179
REMARK   83  A    between atoms: _182  and  _184
REMARK   84  A    between atoms: _184  and  _185
REMARK   85  A    between atoms: _184  and  _187
REMARK   86  A    between atoms: _190  and  _192
REMARK   87  A    between atoms: _192  and  _193
REMARK   88  A    between atoms: _192  and  _195
REMARK   89  A    between atoms: _195  and  _196
REMARK   90  A    between atoms: _196  and  _197
REMARK   91  A    between atoms: _200  and  _202
REMARK   92  A    between atoms: _202  and  _203
REMARK   93  A    between atoms: _202  and  _205
REMARK   94  A    between atoms: _205  and  _206
REMARK   95  A    between atoms: _206  and  _207
REMARK   96  A    between atoms: _209  and  _211
REMARK   97  A    between atoms: _211  and  _212
REMARK   98  A    between atoms: _211  and  _214
REMARK   99  A    between atoms: _214  and  _215
REMARK  100  A    between atoms: _218  and  _220
REMARK  101  A    between atoms: _220  and  _221
REMARK  102  A    between atoms: _220  and  _223
REMARK  103  A    between atoms: _226  and  _228
REMARK  104  A    between atoms: _228  and  _229
REMARK  105  A    between atoms: _228  and  _231
REMARK  106  A    between atoms: _234  and  _236
REMARK  107  A    between atoms: _236  and  _237
REMARK  108  A    between atoms: _236  and  _239
REMARK  109  A    between atoms: _239  and  _240
REMARK  110  A    between atoms: _240  and  _241
REMARK  111  A    between atoms: _243  and  _245
REMARK  112  A    between atoms: _245  and  _246
REMARK  113  A    between atoms: _245  and  _248
REMARK  114  A    between atoms: _248  and  _249
REMARK  115  A    between atoms: _249  and  _250
REMARK  116  A    between atoms: _253  and  _255
REMARK  117  A    between atoms: _255  and  _256
REMARK  118  A    between atoms: _255  and  _258
REMARK  119  A    between atoms: _258  and  _259
REMARK  120  A    between atoms: _265  and  _267
REMARK  121  A    between atoms: _267  and  _268
REMARK  122  A    between atoms: _267  and  _270
REMARK  123  A    between atoms: _270  and  _271
REMARK  124  A    between atoms: _274  and  _276
REMARK  125  A    between atoms: _276  and  _277
REMARK  126  A    between atoms: _276  and  _279
REMARK  127  A    between atoms: _279  and  _280
REMARK  128  A    between atoms: _280  and  _281
REMARK  129  A    between atoms: _284  and  _286
REMARK  130  A    between atoms: _286  and  _287
REMARK  131  A    between atoms: _289  and  _291
REMARK  132  A    between atoms: _291  and  _292
REMARK  133  A    between atoms: _294  and  _296
REMARK  134  A    between atoms: _296  and  _297
REMARK  135  A    between atoms: _300  and  _302
REMARK  136  A    between atoms: _302  and  _303
REMARK  137  A    between atoms: _302  and  _305
REMARK  138  A    between atoms: _305  and  _306
REMARK  139  A    between atoms: _309  and  _311
REMARK  140  A    between atoms: _311  and  _312
REMARK  141  A    between atoms: _311  and  _314
REMARK  142  A    between atoms: _314  and  _315
REMARK  143  A    between atoms: _318  and  _320
REMARK  144  A    between atoms: _320  and  _321
REMARK  145  A    between atoms: _320  and  _323
REMARK  146  A    between atoms: _323  and  _324
REMARK  147  A    between atoms: _327  and  _329
REMARK  148  A    between atoms: _329  and  _330
REMARK  149  A    between atoms: _329  and  _332
REMARK  150  A    between atoms: _332  and  _333
REMARK  151  A    between atoms: _336  and  _338
REMARK  152  A    between atoms: _338  and  _339
REMARK  153  A    between atoms: _338  and  _341
REMARK  154  A    between atoms: _341  and  _342
REMARK  155  A    between atoms: _345  and  _347
REMARK  156  A    between atoms: _347  and  _348
REMARK  157  A    between atoms: _347  and  _350
REMARK  158  A    between atoms: _350  and  _351
REMARK  159  A    between atoms: _356  and  _358
REMARK  160  A    between atoms: _358  and  _359
REMARK  161  A    between atoms: _358  and  _361
REMARK  162  A    between atoms: _361  and  _362
REMARK  163  A    between atoms: _365  and  _367
REMARK  164  A    between atoms: _367  and  _368
REMARK  165  A    between atoms: _367  and  _370
REMARK  166  A    between atoms: _370  and  _371
REMARK  167  A    between atoms: _371  and  _372
REMARK  168  A    between atoms: _372  and  _373
REMARK  169  A    between atoms: _373  and  _374
REMARK  170  A    between atoms: _378  and  _380
REMARK  171  A    between atoms: _380  and  _381
REMARK  172  A    between atoms: _380  and  _383
REMARK  173  A    between atoms: _383  and  _384
REMARK  174  A    between atoms: _386  and  _388
REMARK  175  A    between atoms: _388  and  _389
REMARK  176  A    between atoms: _388  and  _391
REMARK  177  A    between atoms: _391  and  _392
REMARK  178  A    between atoms: _395  and  _397
REMARK  179  A    between atoms: _397  and  _398
REMARK  180  A    between atoms: _397  and  _400
REMARK  181  A    between atoms: _400  and  _401
REMARK  182  A    between atoms: _403  and  _405
REMARK  183  A    between atoms: _405  and  _406
REMARK  184  A    between atoms: _405  and  _408
REMARK  185  A    between atoms: _408  and  _409
REMARK  186  A    between atoms: _412  and  _414
REMARK  187  A    between atoms: _414  and  _415
REMARK  188  A    between atoms: _414  and  _417
REMARK  189  A    between atoms: _417  and  _418
REMARK  190  A    between atoms: _421  and  _423
REMARK  191  A    between atoms: _423  and  _424
REMARK  192  A    between atoms: _423  and  _426
REMARK  193  A    between atoms: _426  and  _427
REMARK  194  A    between atoms: _430  and  _432
REMARK  195  A    between atoms: _432  and  _433
REMARK  196  A    between atoms: _432  and  _435
REMARK  197  A    between atoms: _435  and  _436
REMARK  198  A    between atoms: _439  and  _441
REMARK  199  A    between atoms: _441  and  _442
REMARK  200  A    between atoms: _441  and  _444
REMARK  201  A    between atoms: _444  and  _445
REMARK  202  A    between atoms: _447  and  _449
REMARK  203  A    between atoms: _449  and  _450
REMARK  204  A    between atoms: _449  and  _452
REMARK  205  A    between atoms: _452  and  _453
REMARK  206  A    between atoms: _456  and  _458
REMARK  207  A    between atoms: _458  and  _459
REMARK  208  A    between atoms: _458  and  _461
REMARK  209  A    between atoms: _461  and  _462
REMARK  210  A    between atoms: _468  and  _470
REMARK  211  A    between atoms: _470  and  _471
REMARK  212  A    between atoms: _473  and  _475
REMARK  213  A    between atoms: _475  and  _476
REMARK  214  A    between atoms: _475  and  _478
REMARK  215  A    between atoms: _478  and  _479
REMARK  216  A    between atoms: _479  and  _480
REMARK  217  A    between atoms: _482  and  _484
REMARK  218  A    between atoms: _484  and  _485
REMARK  219  A    between atoms: _484  and  _487
REMARK  220  A    between atoms: _487  and  _488
REMARK  221  A    between atoms: _488  and  _489
REMARK  222  A    between atoms: _489  and  _490
REMARK  223  A    between atoms: _499  and  _501
REMARK  224  A    between atoms: _501  and  _502
REMARK  225  A    between atoms: _501  and  _504
REMARK  226  A    between atoms: _504  and  _505
REMARK  227  A    between atoms: _505  and  _506
REMARK  228  A    between atoms: _511  and  _513
REMARK  229  A    between atoms: _513  and  _514
REMARK  230  A    between atoms: _513  and  _516
REMARK  231  A    between atoms: _516  and  _517
REMARK  232  A    between atoms: _517  and  _518
REMARK  233  A    between atoms: _518  and  _519
REMARK                            x       y       z     vdW  Elec       q    Type
REMARK                         _______ _______ _______ _____ _____    ______ ____
ROOT
ATOM      1  O   HOH     1      39.203  19.049  28.923  0.00  0.00    +0.000 OA
ENDROOT
TORSDOF 0
REMARK  Name = ../refined-set-2016/4app/4app_pocket.pdb
REMARK  233 active torsions:
REMARK  status: ('A' for Active; 'I' for Inactive)
REMARK    1  A    between atoms: _1  and  _3
REMARK    2  A    between atoms: _3  and  _4
REMARK    3  A    between atoms: _3  and  _6
REMARK    4  A    between atoms: _6  and  _7
REMARK    5  A    between atoms: _10  and  _12
REMARK    6  A    between atoms: _12  and  _13
REMARK    7  A    between atoms: _15  and  _17
REMARK    8  A    between atoms: _17  and  _18
REMARK    9  A    between atoms: _17  and  _20
REMARK   10  A    between atoms: _20  and  _21
REMARK   11  A    between atoms: _21  and  _22
REMARK   12  A    between atoms: _25  and  _27
REMARK   13  A    between atoms: _27  and  _28
REMARK   14  A    between atoms: _30  and  _32
REMARK   15  A    between atoms: _32  and  _33
REMARK   16  A    between atoms: _32  and  _35
REMARK   17  A    between atoms: _35  and  _36
REMARK   18  A    between atoms: _38  and  _40
REMARK   19  A    between atoms: _40  and  _41
REMARK   20  A    between atoms: _40  and  _43
REMARK   21  A    between atoms: _43  and  _44
REMARK   22  A    between atoms: _47  and  _49
REMARK   23  A    between atoms: _49  and  _50
REMARK   24  A    between atoms: _52  and  _54
REMARK   25  A    between atoms: _54  and  _55
REMARK   26  A    between atoms: _54  and  _57
REMARK   27  A    between atoms: _57  and  _58
REMARK   28  A    between atoms: _61  and  _63
REMARK   29  A    between atoms: _63  and  _64
REMARK   30  A    between atoms: _63  and  _66
REMARK   31  A    between atoms: _69  and  _71
REMARK   32  A    between atoms: _71  and  _72
REMARK   33  A    between atoms: _71  and  _74
REMARK   34  A    between atoms: _76  and  _78
REMARK   35  A    between atoms: _78  and  _79
REMARK   36  A    between atoms: _78  and  _81
REMARK   37  A    between atoms: _81  and  _82
REMARK   38  A    between atoms: _85  and  _87
REMARK   39  A    between atoms: _87  and  _88
REMARK   40  A    between atoms: _87  and  _90
REMARK   41  A    between atoms: _90  and  _91
REMARK   42  A    between atoms: _94  and  _96
REMARK   43  A    between atoms: _96  and  _97
REMARK   44  A    between atoms: _96  and  _99
REMARK   45  A    between atoms: _102  and  _104
REMARK   46  A    between atoms: _104  and  _105
REMARK   47  A    between atoms: _108  and  _110
REMARK   48  A    between atoms: _110  and  _111
REMARK   49  A    between atoms: _110  and  _113
REMARK   50  A    between atoms: _116  and  _118
REMARK   51  A    between atoms: _118  and  _119
REMARK   52  A    between atoms: _118  and  _121
REMARK   53  A    between atoms: _121  and  _122
REMARK   54  A    between atoms: _122  and  _123
REMARK   55  A    between atoms: _123  and  _124
REMARK   56  A    between atoms: _124  and  _125
REMARK   57  A    between atoms: _129  and  _131
REMARK   58  A    between atoms: _131  and  _132
REMARK   59  A    between atoms: _131  and  _134
REMARK   60  A    between atoms: _134  and  _135
REMARK   61  A    between atoms: _135  and  _136
REMARK   62  A    between atoms: _136  and  _137
REMARK   63  A    between atoms: _137  and  _138
REMARK   64  A    between atoms: _142  and  _144
REMARK   65  A    between atoms: _144  and  _145
REMARK   66  A    between atoms: _144  and  _147
REMARK   67  A    between atoms: _147  and  _148
REMARK   68  A    between atoms: _148  and  _149
REMARK   69  A    between atoms: _151  and  _153
REMARK   70  A    between atoms: _153  and  _154
REMARK   71  A    between atoms: _153  and  _156
REMARK   72  A    between atoms: _156  and  _157
REMARK   73  A    between atoms: _160  and  _162
REMARK   74  A    between atoms: _162  and  _163
REMARK   75  A    between atoms: _162  and  _165
REMARK   76  A    between atoms: _165  and  _166
REMARK   77  A    between atoms: _166  and  _167
REMARK   78  A    between atoms: _172  and  _174
REMARK   79  A    between atoms: _174  and  _175
REMARK   80  A    between atoms: _174  and  _177
REMARK   81  A    between atoms: _177  and  _178
REMARK   82  A    between atoms: _178  and  _179
REMARK   83  A    between atoms: _182  and  _184
REMARK   84  A    between atoms: _184  and  _185
REMARK   85  A    between atoms: _184  and  _187
REMARK   86  A    between atoms: _190  and  _192
REMARK   87  A    between atoms: _192  and  _193
REMARK   88  A    between atoms: _192  and  _195
REMARK   89  A    between atoms: _195  and  _196
REMARK   90  A    between atoms: _196  and  _197
REMARK   91  A    between atoms: _200  and  _202
REMARK   92  A    between atoms: _202  and  _203
REMARK   93  A    between atoms: _202  and  _205
REMARK   94  A    between atoms: _205  and  _206
REMARK   95  A    between atoms: _206  and  _207
REMARK   96  A    between atoms: _209  and  _211
REMARK   97  A    between atoms: _211  and  _212
REMARK   98  A    between atoms: _211  and  _214
REMARK   99  A    between atoms: _214  and  _215
REMARK  100  A    between atoms: _218  and  _220
REMARK  101  A    between atoms: _220  and  _221
REMARK  102  A    between atoms: _220  and  _223
REMARK  103  A    between atoms: _226  and  _228
REMARK  104  A    between atoms: _228  and  _229
REMARK  105  A    between atoms: _228  and  _231
REMARK  106  A    between atoms: _234  and  _236
REMARK  107  A    between atoms: _236  and  _237
REMARK  108  A    between atoms: _236  and  _239
REMARK  109  A    between atoms: _239  and  _240
REMARK  110  A    between atoms: _240  and  _241
REMARK  111  A    between atoms: _243  and  _245
REMARK  112  A    between atoms: _245  and  _246
REMARK  113  A    between atoms: _245  and  _248
REMARK  114  A    between atoms: _248  and  _249
REMARK  115  A    between atoms: _249  and  _250
REMARK  116  A    between atoms: _253  and  _255
REMARK  117  A    between atoms: _255  and  _256
REMARK  118  A    between atoms: _255  and  _258
REMARK  119  A    between atoms: _258  and  _259
REMARK  120  A    between atoms: _265  and  _267
REMARK  121  A    between atoms: _267  and  _268
REMARK  122  A    between atoms: _267  and  _270
REMARK  123  A    between atoms: _270  and  _271
REMARK  124  A    between atoms: _274  and  _276
REMARK  125  A    between atoms: _276  and  _277
REMARK  126  A    between atoms: _276  and  _279
REMARK  127  A    between atoms: _279  and  _280
REMARK  128  A    between atoms: _280  and  _281
REMARK  129  A    between atoms: _284  and  _286
REMARK  130  A    between atoms: _286  and  _287
REMARK  131  A    between atoms: _289  and  _291
REMARK  132  A    between atoms: _291  and  _292
REMARK  133  A    between atoms: _294  and  _296
REMARK  134  A    between atoms: _296  and  _297
REMARK  135  A    between atoms: _300  and  _302
REMARK  136  A    between atoms: _302  and  _303
REMARK  137  A    between atoms: _302  and  _305
REMARK  138  A    between atoms: _305  and  _306
REMARK  139  A    between atoms: _309  and  _311
REMARK  140  A    between atoms: _311  and  _312
REMARK  141  A    between atoms: _311  and  _314
REMARK  142  A    between atoms: _314  and  _315
REMARK  143  A    between atoms: _318  and  _320
REMARK  144  A    between atoms: _320  and  _321
REMARK  145  A    between atoms: _320  and  _323
REMARK  146  A    between atoms: _323  and  _324
REMARK  147  A    between atoms: _327  and  _329
REMARK  148  A    between atoms: _329  and  _330
REMARK  149  A    between atoms: _329  and  _332
REMARK  150  A    between atoms: _332  and  _333
REMARK  151  A    between atoms: _336  and  _338
REMARK  152  A    between atoms: _338  and  _339
REMARK  153  A    between atoms: _338  and  _341
REMARK  154  A    between atoms: _341  and  _342
REMARK  155  A    between atoms: _345  and  _347
REMARK  156  A    between atoms: _347  and  _348
REMARK  157  A    between atoms: _347  and  _350
REMARK  158  A    between atoms: _350  and  _351
REMARK  159  A    between atoms: _356  and  _358
REMARK  160  A    between atoms: _358  and  _359
REMARK  161  A    between atoms: _358  and  _361
REMARK  162  A    between atoms: _361  and  _362
REMARK  163  A    between atoms: _365  and  _367
REMARK  164  A    between atoms: _367  and  _368
REMARK  165  A    between atoms: _367  and  _370
REMARK  166  A    between atoms: _370  and  _371
REMARK  167  A    between atoms: _371  and  _372
REMARK  168  A    between atoms: _372  and  _373
REMARK  169  A    between atoms: _373  and  _374
REMARK  170  A    between atoms: _378  and  _380
REMARK  171  A    between atoms: _380  and  _381
REMARK  172  A    between atoms: _380  and  _383
REMARK  173  A    between atoms: _383  and  _384
REMARK  174  A    between atoms: _386  and  _388
REMARK  175  A    between atoms: _388  and  _389
REMARK  176  A    between atoms: _388  and  _391
REMARK  177  A    between atoms: _391  and  _392
REMARK  178  A    between atoms: _395  and  _397
REMARK  179  A    between atoms: _397  and  _398
REMARK  180  A    between atoms: _397  and  _400
REMARK  181  A    between atoms: _400  and  _401
REMARK  182  A    between atoms: _403  and  _405
REMARK  183  A    between atoms: _405  and  _406
REMARK  184  A    between atoms: _405  and  _408
REMARK  185  A    between atoms: _408  and  _409
REMARK  186  A    between atoms: _412  and  _414
REMARK  187  A    between atoms: _414  and  _415
REMARK  188  A    between atoms: _414  and  _417
REMARK  189  A    between atoms: _417  and  _418
REMARK  190  A    between atoms: _421  and  _423
REMARK  191  A    between atoms: _423  and  _424
REMARK  192  A    between atoms: _423  and  _426
REMARK  193  A    between atoms: _426  and  _427
REMARK  194  A    between atoms: _430  and  _432
REMARK  195  A    between atoms: _432  and  _433
REMARK  196  A    between atoms: _432  and  _435
REMARK  197  A    between atoms: _435  and  _436
REMARK  198  A    between atoms: _439  and  _441
REMARK  199  A    between atoms: _441  and  _442
REMARK  200  A    between atoms: _441  and  _444
REMARK  201  A    between atoms: _444  and  _445
REMARK  202  A    between atoms: _447  and  _449
REMARK  203  A    between atoms: _449  and  _450
REMARK  204  A    between atoms: _449  and  _452
REMARK  205  A    between atoms: _452  and  _453
REMARK  206  A    between atoms: _456  and  _458
REMARK  207  A    between atoms: _458  and  _459
REMARK  208  A    between atoms: _458  and  _461
REMARK  209  A    between atoms: _461  and  _462
REMARK  210  A    between atoms: _468  and  _470
REMARK  211  A    between atoms: _470  and  _471
REMARK  212  A    between atoms: _473  and  _475
REMARK  213  A    between atoms: _475  and  _476
REMARK  214  A    between atoms: _475  and  _478
REMARK  215  A    between atoms: _478  and  _479
REMARK  216  A    between atoms: _479  and  _480
REMARK  217  A    between atoms: _482  and  _484
REMARK  218  A    between atoms: _484  and  _485
REMARK  219  A    between atoms: _484  and  _487
REMARK  220  A    between atoms: _487  and  _488
REMARK  221  A    between atoms: _488  and  _489
REMARK  222  A    between atoms: _489  and  _490
REMARK  223  A    between atoms: _499  and  _501
REMARK  224  A    between atoms: _501  and  _502
REMARK  225  A    between atoms: _501  and  _504
REMARK  226  A    between atoms: _504  and  _505
REMARK  227  A    between atoms: _505  and  _506
REMARK  228  A    between atoms: _511  and  _513
REMARK  229  A    between atoms: _513  and  _514
REMARK  230  A    between atoms: _513  and  _516
REMARK  231  A    between atoms: _516  and  _517
REMARK  232  A    between atoms: _517  and  _518
REMARK  233  A    between atoms: _518  and  _519
REMARK                            x       y       z     vdW  Elec       q    Type
REMARK                         _______ _______ _______ _____ _____    ______ ____
ROOT
ATOM      1  O   HOH     1      37.251  14.243  17.436  0.00  0.00    +0.000 OA
ENDROOT
TORSDOF 0
REMARK  Name = ../refined-set-2016/4app/4app_pocket.pdb
REMARK  233 active torsions:
REMARK  status: ('A' for Active; 'I' for Inactive)
REMARK    1  A    between atoms: _1  and  _3
REMARK    2  A    between atoms: _3  and  _4
REMARK    3  A    between atoms: _3  and  _6
REMARK    4  A    between atoms: _6  and  _7
REMARK    5  A    between atoms: _10  and  _12
REMARK    6  A    between atoms: _12  and  _13
REMARK    7  A    between atoms: _15  and  _17
REMARK    8  A    between atoms: _17  and  _18
REMARK    9  A    between atoms: _17  and  _20
REMARK   10  A    between atoms: _20  and  _21
REMARK   11  A    between atoms: _21  and  _22
REMARK   12  A    between atoms: _25  and  _27
REMARK   13  A    between atoms: _27  and  _28
REMARK   14  A    between atoms: _30  and  _32
REMARK   15  A    between atoms: _32  and  _33
REMARK   16  A    between atoms: _32  and  _35
REMARK   17  A    between atoms: _35  and  _36
REMARK   18  A    between atoms: _38  and  _40
REMARK   19  A    between atoms: _40  and  _41
REMARK   20  A    between atoms: _40  and  _43
REMARK   21  A    between atoms: _43  and  _44
REMARK   22  A    between atoms: _47  and  _49
REMARK   23  A    between atoms: _49  and  _50
REMARK   24  A    between atoms: _52  and  _54
REMARK   25  A    between atoms: _54  and  _55
REMARK   26  A    between atoms: _54  and  _57
REMARK   27  A    between atoms: _57  and  _58
REMARK   28  A    between atoms: _61  and  _63
REMARK   29  A    between atoms: _63  and  _64
REMARK   30  A    between atoms: _63  and  _66
REMARK   31  A    between atoms: _69  and  _71
REMARK   32  A    between atoms: _71  and  _72
REMARK   33  A    between atoms: _71  and  _74
REMARK   34  A    between atoms: _76  and  _78
REMARK   35  A    between atoms: _78  and  _79
REMARK   36  A    between atoms: _78  and  _81
REMARK   37  A    between atoms: _81  and  _82
REMARK   38  A    between atoms: _85  and  _87
REMARK   39  A    between atoms: _87  and  _88
REMARK   40  A    between atoms: _87  and  _90
REMARK   41  A    between atoms: _90  and  _91
REMARK   42  A    between atoms: _94  and  _96
REMARK   43  A    between atoms: _96  and  _97
REMARK   44  A    between atoms: _96  and  _99
REMARK   45  A    between atoms: _102  and  _104
REMARK   46  A    between atoms: _104  and  _105
REMARK   47  A    between atoms: _108  and  _110
REMARK   48  A    between atoms: _110  and  _111
REMARK   49  A    between atoms: _110  and  _113
REMARK   50  A    between atoms: _116  and  _118
REMARK   51  A    between atoms: _118  and  _119
REMARK   52  A    between atoms: _118  and  _121
REMARK   53  A    between atoms: _121  and  _122
REMARK   54  A    between atoms: _122  and  _123
REMARK   55  A    between atoms: _123  and  _124
REMARK   56  A    between atoms: _124  and  _125
REMARK   57  A    between atoms: _129  and  _131
REMARK   58  A    between atoms: _131  and  _132
REMARK   59  A    between atoms: _131  and  _134
REMARK   60  A    between atoms: _134  and  _135
REMARK   61  A    between atoms: _135  and  _136
REMARK   62  A    between atoms: _136  and  _137
REMARK   63  A    between atoms: _137  and  _138
REMARK   64  A    between atoms: _142  and  _144
REMARK   65  A    between atoms: _144  and  _145
REMARK   66  A    between atoms: _144  and  _147
REMARK   67  A    between atoms: _147  and  _148
REMARK   68  A    between atoms: _148  and  _149
REMARK   69  A    between atoms: _151  and  _153
REMARK   70  A    between atoms: _153  and  _154
REMARK   71  A    between atoms: _153  and  _156
REMARK   72  A    between atoms: _156  and  _157
REMARK   73  A    between atoms: _160  and  _162
REMARK   74  A    between atoms: _162  and  _163
REMARK   75  A    between atoms: _162  and  _165
REMARK   76  A    between atoms: _165  and  _166
REMARK   77  A    between atoms: _166  and  _167
REMARK   78  A    between atoms: _172  and  _174
REMARK   79  A    between atoms: _174  and  _175
REMARK   80  A    between atoms: _174  and  _177
REMARK   81  A    between atoms: _177  and  _178
REMARK   82  A    between atoms: _178  and  _179
REMARK   83  A    between atoms: _182  and  _184
REMARK   84  A    between atoms: _184  and  _185
REMARK   85  A    between atoms: _184  and  _187
REMARK   86  A    between atoms: _190  and  _192
REMARK   87  A    between atoms: _192  and  _193
REMARK   88  A    between atoms: _192  and  _195
REMARK   89  A    between atoms: _195  and  _196
REMARK   90  A    between atoms: _196  and  _197
REMARK   91  A    between atoms: _200  and  _202
REMARK   92  A    between atoms: _202  and  _203
REMARK   93  A    between atoms: _202  and  _205
REMARK   94  A    between atoms: _205  and  _206
REMARK   95  A    between atoms: _206  and  _207
REMARK   96  A    between atoms: _209  and  _211
REMARK   97  A    between atoms: _211  and  _212
REMARK   98  A    between atoms: _211  and  _214
REMARK   99  A    between atoms: _214  and  _215
REMARK  100  A    between atoms: _218  and  _220
REMARK  101  A    between atoms: _220  and  _221
REMARK  102  A    between atoms: _220  and  _223
REMARK  103  A    between atoms: _226  and  _228
REMARK  104  A    between atoms: _228  and  _229
REMARK  105  A    between atoms: _228  and  _231
REMARK  106  A    between atoms: _234  and  _236
REMARK  107  A    between atoms: _236  and  _237
REMARK  108  A    between atoms: _236  and  _239
REMARK  109  A    between atoms: _239  and  _240
REMARK  110  A    between atoms: _240  and  _241
REMARK  111  A    between atoms: _243  and  _245
REMARK  112  A    between atoms: _245  and  _246
REMARK  113  A    between atoms: _245  and  _248
REMARK  114  A    between atoms: _248  and  _249
REMARK  115  A    between atoms: _249  and  _250
REMARK  116  A    between atoms: _253  and  _255
REMARK  117  A    between atoms: _255  and  _256
REMARK  118  A    between atoms: _255  and  _258
REMARK  119  A    between atoms: _258  and  _259
REMARK  120  A    between atoms: _265  and  _267
REMARK  121  A    between atoms: _267  and  _268
REMARK  122  A    between atoms: _267  and  _270
REMARK  123  A    between atoms: _270  and  _271
REMARK  124  A    between atoms: _274  and  _276
REMARK  125  A    between atoms: _276  and  _277
REMARK  126  A    between atoms: _276  and  _279
REMARK  127  A    between atoms: _279  and  _280
REMARK  128  A    between atoms: _280  and  _281
REMARK  129  A    between atoms: _284  and  _286
REMARK  130  A    between atoms: _286  and  _287
REMARK  131  A    between atoms: _289  and  _291
REMARK  132  A    between atoms: _291  and  _292
REMARK  133  A    between atoms: _294  and  _296
REMARK  134  A    between atoms: _296  and  _297
REMARK  135  A    between atoms: _300  and  _302
REMARK  136  A    between atoms: _302  and  _303
REMARK  137  A    between atoms: _302  and  _305
REMARK  138  A    between atoms: _305  and  _306
REMARK  139  A    between atoms: _309  and  _311
REMARK  140  A    between atoms: _311  and  _312
REMARK  141  A    between atoms: _311  and  _314
REMARK  142  A    between atoms: _314  and  _315
REMARK  143  A    between atoms: _318  and  _320
REMARK  144  A    between atoms: _320  and  _321
REMARK  145  A    between atoms: _320  and  _323
REMARK  146  A    between atoms: _323  and  _324
REMARK  147  A    between atoms: _327  and  _329
REMARK  148  A    between atoms: _329  and  _330
REMARK  149  A    between atoms: _329  and  _332
REMARK  150  A    between atoms: _332  and  _333
REMARK  151  A    between atoms: _336  and  _338
REMARK  152  A    between atoms: _338  and  _339
REMARK  153  A    between atoms: _338  and  _341
REMARK  154  A    between atoms: _341  and  _342
REMARK  155  A    between atoms: _345  and  _347
REMARK  156  A    between atoms: _347  and  _348
REMARK  157  A    between atoms: _347  and  _350
REMARK  158  A    between atoms: _350  and  _351
REMARK  159  A    between atoms: _356  and  _358
REMARK  160  A    between atoms: _358  and  _359
REMARK  161  A    between atoms: _358  and  _361
REMARK  162  A    between atoms: _361  and  _362
REMARK  163  A    between atoms: _365  and  _367
REMARK  164  A    between atoms: _367  and  _368
REMARK  165  A    between atoms: _367  and  _370
REMARK  166  A    between atoms: _370  and  _371
REMARK  167  A    between atoms: _371  and  _372
REMARK  168  A    between atoms: _372  and  _373
REMARK  169  A    between atoms: _373  and  _374
REMARK  170  A    between atoms: _378  and  _380
REMARK  171  A    between atoms: _380  and  _381
REMARK  172  A    between atoms: _380  and  _383
REMARK  173  A    between atoms: _383  and  _384
REMARK  174  A    between atoms: _386  and  _388
REMARK  175  A    between atoms: _388  and  _389
REMARK  176  A    between atoms: _388  and  _391
REMARK  177  A    between atoms: _391  and  _392
REMARK  178  A    between atoms: _395  and  _397
REMARK  179  A    between atoms: _397  and  _398
REMARK  180  A    between atoms: _397  and  _400
REMARK  181  A    between atoms: _400  and  _401
REMARK  182  A    between atoms: _403  and  _405
REMARK  183  A    between atoms: _405  and  _406
REMARK  184  A    between atoms: _405  and  _408
REMARK  185  A    between atoms: _408  and  _409
REMARK  186  A    between atoms: _412  and  _414
REMARK  187  A    between atoms: _414  and  _415
REMARK  188  A    between atoms: _414  and  _417
REMARK  189  A    between atoms: _417  and  _418
REMARK  190  A    between atoms: _421  and  _423
REMARK  191  A    between atoms: _423  and  _424
REMARK  192  A    between atoms: _423  and  _426
REMARK  193  A    between atoms: _426  and  _427
REMARK  194  A    between atoms: _430  and  _432
REMARK  195  A    between atoms: _432  and  _433
REMARK  196  A    between atoms: _432  and  _435
REMARK  197  A    between atoms: _435  and  _436
REMARK  198  A    between atoms: _439  and  _441
REMARK  199  A    between atoms: _441  and  _442
REMARK  200  A    between atoms: _441  and  _444
REMARK  201  A    between atoms: _444  and  _445
REMARK  202  A    between atoms: _447  and  _449
REMARK  203  A    between atoms: _449  and  _450
REMARK  204  A    between atoms: _449  and  _452
REMARK  205  A    between atoms: _452  and  _453
REMARK  206  A    between atoms: _456  and  _458
REMARK  207  A    between atoms: _458  and  _459
REMARK  208  A    between atoms: _458  and  _461
REMARK  209  A    between atoms: _461  and  _462
REMARK  210  A    between atoms: _468  and  _470
REMARK  211  A    between atoms: _470  and  _471
REMARK  212  A    between atoms: _473  and  _475
REMARK  213  A    between atoms: _475  and  _476
REMARK  214  A    between atoms: _475  and  _478
REMARK  215  A    between atoms: _478  and  _479
REMARK  216  A    between atoms: _479  and  _480
REMARK  217  A    between atoms: _482  and  _484
REMARK  218  A    between atoms: _484  and  _485
REMARK  219  A    between atoms: _484  and  _487
REMARK  220  A    between atoms: _487  and  _488
REMARK  221  A    between atoms: _488  and  _489
REMARK  222  A    between atoms: _489  and  _490
REMARK  223  A    between atoms: _499  and  _501
REMARK  224  A    between atoms: _501  and  _502
REMARK  225  A    between atoms: _501  and  _504
REMARK  226  A    between atoms: _504  and  _505
REMARK  227  A    between atoms: _505  and  _506
REMARK  228  A    between atoms: _511  and  _513
REMARK  229  A    between atoms: _513  and  _514
REMARK  230  A    between atoms: _513  and  _516
REMARK  231  A    between atoms: _516  and  _517
REMARK  232  A    between atoms: _517  and  _518
REMARK  233  A    between atoms: _518  and  _519
REMARK                            x       y       z     vdW  Elec       q    Type
REMARK                         _______ _______ _______ _____ _____    ______ ____
ROOT
ATOM      1  O   HOH     1      41.434  18.960  12.042  0.00  0.00    +0.000 OA
ENDROOT
TORSDOF 0
REMARK  Name = ../refined-set-2016/4app/4app_pocket.pdb
REMARK  233 active torsions:
REMARK  status: ('A' for Active; 'I' for Inactive)
REMARK    1  A    between atoms: _1  and  _3
REMARK    2  A    between atoms: _3  and  _4
REMARK    3  A    between atoms: _3  and  _6
REMARK    4  A    between atoms: _6  and  _7
REMARK    5  A    between atoms: _10  and  _12
REMARK    6  A    between atoms: _12  and  _13
REMARK    7  A    between atoms: _15  and  _17
REMARK    8  A    between atoms: _17  and  _18
REMARK    9  A    between atoms: _17  and  _20
REMARK   10  A    between atoms: _20  and  _21
REMARK   11  A    between atoms: _21  and  _22
REMARK   12  A    between atoms: _25  and  _27
REMARK   13  A    between atoms: _27  and  _28
REMARK   14  A    between atoms: _30  and  _32
REMARK   15  A    between atoms: _32  and  _33
REMARK   16  A    between atoms: _32  and  _35
REMARK   17  A    between atoms: _35  and  _36
REMARK   18  A    between atoms: _38  and  _40
REMARK   19  A    between atoms: _40  and  _41
REMARK   20  A    between atoms: _40  and  _43
REMARK   21  A    between atoms: _43  and  _44
REMARK   22  A    between atoms: _47  and  _49
REMARK   23  A    between atoms: _49  and  _50
REMARK   24  A    between atoms: _52  and  _54
REMARK   25  A    between atoms: _54  and  _55
REMARK   26  A    between atoms: _54  and  _57
REMARK   27  A    between atoms: _57  and  _58
REMARK   28  A    between atoms: _61  and  _63
REMARK   29  A    between atoms: _63  and  _64
REMARK   30  A    between atoms: _63  and  _66
REMARK   31  A    between atoms: _69  and  _71
REMARK   32  A    between atoms: _71  and  _72
REMARK   33  A    between atoms: _71  and  _74
REMARK   34  A    between atoms: _76  and  _78
REMARK   35  A    between atoms: _78  and  _79
REMARK   36  A    between atoms: _78  and  _81
REMARK   37  A    between atoms: _81  and  _82
REMARK   38  A    between atoms: _85  and  _87
REMARK   39  A    between atoms: _87  and  _88
REMARK   40  A    between atoms: _87  and  _90
REMARK   41  A    between atoms: _90  and  _91
REMARK   42  A    between atoms: _94  and  _96
REMARK   43  A    between atoms: _96  and  _97
REMARK   44  A    between atoms: _96  and  _99
REMARK   45  A    between atoms: _102  and  _104
REMARK   46  A    between atoms: _104  and  _105
REMARK   47  A    between atoms: _108  and  _110
REMARK   48  A    between atoms: _110  and  _111
REMARK   49  A    between atoms: _110  and  _113
REMARK   50  A    between atoms: _116  and  _118
REMARK   51  A    between atoms: _118  and  _119
REMARK   52  A    between atoms: _118  and  _121
REMARK   53  A    between atoms: _121  and  _122
REMARK   54  A    between atoms: _122  and  _123
REMARK   55  A    between atoms: _123  and  _124
REMARK   56  A    between atoms: _124  and  _125
REMARK   57  A    between atoms: _129  and  _131
REMARK   58  A    between atoms: _131  and  _132
REMARK   59  A    between atoms: _131  and  _134
REMARK   60  A    between atoms: _134  and  _135
REMARK   61  A    between atoms: _135  and  _136
REMARK   62  A    between atoms: _136  and  _137
REMARK   63  A    between atoms: _137  and  _138
REMARK   64  A    between atoms: _142  and  _144
REMARK   65  A    between atoms: _144  and  _145
REMARK   66  A    between atoms: _144  and  _147
REMARK   67  A    between atoms: _147  and  _148
REMARK   68  A    between atoms: _148  and  _149
REMARK   69  A    between atoms: _151  and  _153
REMARK   70  A    between atoms: _153  and  _154
REMARK   71  A    between atoms: _153  and  _156
REMARK   72  A    between atoms: _156  and  _157
REMARK   73  A    between atoms: _160  and  _162
REMARK   74  A    between atoms: _162  and  _163
REMARK   75  A    between atoms: _162  and  _165
REMARK   76  A    between atoms: _165  and  _166
REMARK   77  A    between atoms: _166  and  _167
REMARK   78  A    between atoms: _172  and  _174
REMARK   79  A    between atoms: _174  and  _175
REMARK   80  A    between atoms: _174  and  _177
REMARK   81  A    between atoms: _177  and  _178
REMARK   82  A    between atoms: _178  and  _179
REMARK   83  A    between atoms: _182  and  _184
REMARK   84  A    between atoms: _184  and  _185
REMARK   85  A    between atoms: _184  and  _187
REMARK   86  A    between atoms: _190  and  _192
REMARK   87  A    between atoms: _192  and  _193
REMARK   88  A    between atoms: _192  and  _195
REMARK   89  A    between atoms: _195  and  _196
REMARK   90  A    between atoms: _196  and  _197
REMARK   91  A    between atoms: _200  and  _202
REMARK   92  A    between atoms: _202  and  _203
REMARK   93  A    between atoms: _202  and  _205
REMARK   94  A    between atoms: _205  and  _206
REMARK   95  A    between atoms: _206  and  _207
REMARK   96  A    between atoms: _209  and  _211
REMARK   97  A    between atoms: _211  and  _212
REMARK   98  A    between atoms: _211  and  _214
REMARK   99  A    between atoms: _214  and  _215
REMARK  100  A    between atoms: _218  and  _220
REMARK  101  A    between atoms: _220  and  _221
REMARK  102  A    between atoms: _220  and  _223
REMARK  103  A    between atoms: _226  and  _228
REMARK  104  A    between atoms: _228  and  _229
REMARK  105  A    between atoms: _228  and  _231
REMARK  106  A    between atoms: _234  and  _236
REMARK  107  A    between atoms: _236  and  _237
REMARK  108  A    between atoms: _236  and  _239
REMARK  109  A    between atoms: _239  and  _240
REMARK  110  A    between atoms: _240  and  _241
REMARK  111  A    between atoms: _243  and  _245
REMARK  112  A    between atoms: _245  and  _246
REMARK  113  A    between atoms: _245  and  _248
REMARK  114  A    between atoms: _248  and  _249
REMARK  115  A    between atoms: _249  and  _250
REMARK  116  A    between atoms: _253  and  _255
REMARK  117  A    between atoms: _255  and  _256
REMARK  118  A    between atoms: _255  and  _258
REMARK  119  A    between atoms: _258  and  _259
REMARK  120  A    between atoms: _265  and  _267
REMARK  121  A    between atoms: _267  and  _268
REMARK  122  A    between atoms: _267  and  _270
REMARK  123  A    between atoms: _270  and  _271
REMARK  124  A    between atoms: _274  and  _276
REMARK  125  A    between atoms: _276  and  _277
REMARK  126  A    between atoms: _276  and  _279
REMARK  127  A    between atoms: _279  and  _280
REMARK  128  A    between atoms: _280  and  _281
REMARK  129  A    between atoms: _284  and  _286
REMARK  130  A    between atoms: _286  and  _287
REMARK  131  A    between atoms: _289  and  _291
REMARK  132  A    between atoms: _291  and  _292
REMARK  133  A    between atoms: _294  and  _296
REMARK  134  A    between atoms: _296  and  _297
REMARK  135  A    between atoms: _300  and  _302
REMARK  136  A    between atoms: _302  and  _303
REMARK  137  A    between atoms: _302  and  _305
REMARK  138  A    between atoms: _305  and  _306
REMARK  139  A    between atoms: _309  and  _311
REMARK  140  A    between atoms: _311  and  _312
REMARK  141  A    between atoms: _311  and  _314
REMARK  142  A    between atoms: _314  and  _315
REMARK  143  A    between atoms: _318  and  _320
REMARK  144  A    between atoms: _320  and  _321
REMARK  145  A    between atoms: _320  and  _323
REMARK  146  A    between atoms: _323  and  _324
REMARK  147  A    between atoms: _327  and  _329
REMARK  148  A    between atoms: _329  and  _330
REMARK  149  A    between atoms: _329  and  _332
REMARK  150  A    between atoms: _332  and  _333
REMARK  151  A    between atoms: _336  and  _338
REMARK  152  A    between atoms: _338  and  _339
REMARK  153  A    between atoms: _338  and  _341
REMARK  154  A    between atoms: _341  and  _342
REMARK  155  A    between atoms: _345  and  _347
REMARK  156  A    between atoms: _347  and  _348
REMARK  157  A    between atoms: _347  and  _350
REMARK  158  A    between atoms: _350  and  _351
REMARK  159  A    between atoms: _356  and  _358
REMARK  160  A    between atoms: _358  and  _359
REMARK  161  A    between atoms: _358  and  _361
REMARK  162  A    between atoms: _361  and  _362
REMARK  163  A    between atoms: _365  and  _367
REMARK  164  A    between atoms: _367  and  _368
REMARK  165  A    between atoms: _367  and  _370
REMARK  166  A    between atoms: _370  and  _371
REMARK  167  A    between atoms: _371  and  _372
REMARK  168  A    between atoms: _372  and  _373
REMARK  169  A    between atoms: _373  and  _374
REMARK  170  A    between atoms: _378  and  _380
REMARK  171  A    between atoms: _380  and  _381
REMARK  172  A    between atoms: _380  and  _383
REMARK  173  A    between atoms: _383  and  _384
REMARK  174  A    between atoms: _386  and  _388
REMARK  175  A    between atoms: _388  and  _389
REMARK  176  A    between atoms: _388  and  _391
REMARK  177  A    between atoms: _391  and  _392
REMARK  178  A    between atoms: _395  and  _397
REMARK  179  A    between atoms: _397  and  _398
REMARK  180  A    between atoms: _397  and  _400
REMARK  181  A    between atoms: _400  and  _401
REMARK  182  A    between atoms: _403  and  _405
REMARK  183  A    between atoms: _405  and  _406
REMARK  184  A    between atoms: _405  and  _408
REMARK  185  A    between atoms: _408  and  _409
REMARK  186  A    between atoms: _412  and  _414
REMARK  187  A    between atoms: _414  and  _415
REMARK  188  A    between atoms: _414  and  _417
REMARK  189  A    between atoms: _417  and  _418
REMARK  190  A    between atoms: _421  and  _423
REMARK  191  A    between atoms: _423  and  _424
REMARK  192  A    between atoms: _423  and  _426
REMARK  193  A    between atoms: _426  and  _427
REMARK  194  A    between atoms: _430  and  _432
REMARK  195  A    between atoms: _432  and  _433
REMARK  196  A    between atoms: _432  and  _435
REMARK  197  A    between atoms: _435  and  _436
REMARK  198  A    between atoms: _439  and  _441
REMARK  199  A    between atoms: _441  and  _442
REMARK  200  A    between atoms: _441  and  _444
REMARK  201  A    between atoms: _444  and  _445
REMARK  202  A    between atoms: _447  and  _449
REMARK  203  A    between atoms: _449  and  _450
REMARK  204  A    between atoms: _449  and  _452
REMARK  205  A    between atoms: _452  and  _453
REMARK  206  A    between atoms: _456  and  _458
REMARK  207  A    between atoms: _458  and  _459
REMARK  208  A    between atoms: _458  and  _461
REMARK  209  A    between atoms: _461  and  _462
REMARK  210  A    between atoms: _468  and  _470
REMARK  211  A    between atoms: _470  and  _471
REMARK  212  A    between atoms: _473  and  _475
REMARK  213  A    between atoms: _475  and  _476
REMARK  214  A    between atoms: _475  and  _478
REMARK  215  A    between atoms: _478  and  _479
REMARK  216  A    between atoms: _479  and  _480
REMARK  217  A    between atoms: _482  and  _484
REMARK  218  A    between atoms: _484  and  _485
REMARK  219  A    between atoms: _484  and  _487
REMARK  220  A    between atoms: _487  and  _488
REMARK  221  A    between atoms: _488  and  _489
REMARK  222  A    between atoms: _489  and  _490
REMARK  223  A    between atoms: _499  and  _501
REMARK  224  A    between atoms: _501  and  _502
REMARK  225  A    between atoms: _501  and  _504
REMARK  226  A    between atoms: _504  and  _505
REMARK  227  A    between atoms: _505  and  _506
REMARK  228  A    between atoms: _511  and  _513
REMARK  229  A    between atoms: _513  and  _514
REMARK  230  A    between atoms: _513  and  _516
REMARK  231  A    between atoms: _516  and  _517
REMARK  232  A    between atoms: _517  and  _518
REMARK  233  A    between atoms: _518  and  _519
REMARK                            x       y       z     vdW  Elec       q    Type
REMARK                         _______ _______ _______ _____ _____    ______ ____
ROOT
ATOM      1  O   HOH     1      40.519  16.179  13.289  0.00  0.00    +0.000 OA
ENDROOT
TORSDOF 0
REMARK  Name = ../refined-set-2016/4app/4app_pocket.pdb
REMARK  233 active torsions:
REMARK  status: ('A' for Active; 'I' for Inactive)
REMARK    1  A    between atoms: _1  and  _3
REMARK    2  A    between atoms: _3  and  _4
REMARK    3  A    between atoms: _3  and  _6
REMARK    4  A    between atoms: _6  and  _7
REMARK    5  A    between atoms: _10  and  _12
REMARK    6  A    between atoms: _12  and  _13
REMARK    7  A    between atoms: _15  and  _17
REMARK    8  A    between atoms: _17  and  _18
REMARK    9  A    between atoms: _17  and  _20
REMARK   10  A    between atoms: _20  and  _21
REMARK   11  A    between atoms: _21  and  _22
REMARK   12  A    between atoms: _25  and  _27
REMARK   13  A    between atoms: _27  and  _28
REMARK   14  A    between atoms: _30  and  _32
REMARK   15  A    between atoms: _32  and  _33
REMARK   16  A    between atoms: _32  and  _35
REMARK   17  A    between atoms: _35  and  _36
REMARK   18  A    between atoms: _38  and  _40
REMARK   19  A    between atoms: _40  and  _41
REMARK   20  A    between atoms: _40  and  _43
REMARK   21  A    between atoms: _43  and  _44
REMARK   22  A    between atoms: _47  and  _49
REMARK   23  A    between atoms: _49  and  _50
REMARK   24  A    between atoms: _52  and  _54
REMARK   25  A    between atoms: _54  and  _55
REMARK   26  A    between atoms: _54  and  _57
REMARK   27  A    between atoms: _57  and  _58
REMARK   28  A    between atoms: _61  and  _63
REMARK   29  A    between atoms: _63  and  _64
REMARK   30  A    between atoms: _63  and  _66
REMARK   31  A    between atoms: _69  and  _71
REMARK   32  A    between atoms: _71  and  _72
REMARK   33  A    between atoms: _71  and  _74
REMARK   34  A    between atoms: _76  and  _78
REMARK   35  A    between atoms: _78  and  _79
REMARK   36  A    between atoms: _78  and  _81
REMARK   37  A    between atoms: _81  and  _82
REMARK   38  A    between atoms: _85  and  _87
REMARK   39  A    between atoms: _87  and  _88
REMARK   40  A    between atoms: _87  and  _90
REMARK   41  A    between atoms: _90  and  _91
REMARK   42  A    between atoms: _94  and  _96
REMARK   43  A    between atoms: _96  and  _97
REMARK   44  A    between atoms: _96  and  _99
REMARK   45  A    between atoms: _102  and  _104
REMARK   46  A    between atoms: _104  and  _105
REMARK   47  A    between atoms: _108  and  _110
REMARK   48  A    between atoms: _110  and  _111
REMARK   49  A    between atoms: _110  and  _113
REMARK   50  A    between atoms: _116  and  _118
REMARK   51  A    between atoms: _118  and  _119
REMARK   52  A    between atoms: _118  and  _121
REMARK   53  A    between atoms: _121  and  _122
REMARK   54  A    between atoms: _122  and  _123
REMARK   55  A    between atoms: _123  and  _124
REMARK   56  A    between atoms: _124  and  _125
REMARK   57  A    between atoms: _129  and  _131
REMARK   58  A    between atoms: _131  and  _132
REMARK   59  A    between atoms: _131  and  _134
REMARK   60  A    between atoms: _134  and  _135
REMARK   61  A    between atoms: _135  and  _136
REMARK   62  A    between atoms: _136  and  _137
REMARK   63  A    between atoms: _137  and  _138
REMARK   64  A    between atoms: _142  and  _144
REMARK   65  A    between atoms: _144  and  _145
REMARK   66  A    between atoms: _144  and  _147
REMARK   67  A    between atoms: _147  and  _148
REMARK   68  A    between atoms: _148  and  _149
REMARK   69  A    between atoms: _151  and  _153
REMARK   70  A    between atoms: _153  and  _154
REMARK   71  A    between atoms: _153  and  _156
REMARK   72  A    between atoms: _156  and  _157
REMARK   73  A    between atoms: _160  and  _162
REMARK   74  A    between atoms: _162  and  _163
REMARK   75  A    between atoms: _162  and  _165
REMARK   76  A    between atoms: _165  and  _166
REMARK   77  A    between atoms: _166  and  _167
REMARK   78  A    between atoms: _172  and  _174
REMARK   79  A    between atoms: _174  and  _175
REMARK   80  A    between atoms: _174  and  _177
REMARK   81  A    between atoms: _177  and  _178
REMARK   82  A    between atoms: _178  and  _179
REMARK   83  A    between atoms: _182  and  _184
REMARK   84  A    between atoms: _184  and  _185
REMARK   85  A    between atoms: _184  and  _187
REMARK   86  A    between atoms: _190  and  _192
REMARK   87  A    between atoms: _192  and  _193
REMARK   88  A    between atoms: _192  and  _195
REMARK   89  A    between atoms: _195  and  _196
REMARK   90  A    between atoms: _196  and  _197
REMARK   91  A    between atoms: _200  and  _202
REMARK   92  A    between atoms: _202  and  _203
REMARK   93  A    between atoms: _202  and  _205
REMARK   94  A    between atoms: _205  and  _206
REMARK   95  A    between atoms: _206  and  _207
REMARK   96  A    between atoms: _209  and  _211
REMARK   97  A    between atoms: _211  and  _212
REMARK   98  A    between atoms: _211  and  _214
REMARK   99  A    between atoms: _214  and  _215
REMARK  100  A    between atoms: _218  and  _220
REMARK  101  A    between atoms: _220  and  _221
REMARK  102  A    between atoms: _220  and  _223
REMARK  103  A    between atoms: _226  and  _228
REMARK  104  A    between atoms: _228  and  _229
REMARK  105  A    between atoms: _228  and  _231
REMARK  106  A    between atoms: _234  and  _236
REMARK  107  A    between atoms: _236  and  _237
REMARK  108  A    between atoms: _236  and  _239
REMARK  109  A    between atoms: _239  and  _240
REMARK  110  A    between atoms: _240  and  _241
REMARK  111  A    between atoms: _243  and  _245
REMARK  112  A    between atoms: _245  and  _246
REMARK  113  A    between atoms: _245  and  _248
REMARK  114  A    between atoms: _248  and  _249
REMARK  115  A    between atoms: _249  and  _250
REMARK  116  A    between atoms: _253  and  _255
REMARK  117  A    between atoms: _255  and  _256
REMARK  118  A    between atoms: _255  and  _258
REMARK  119  A    between atoms: _258  and  _259
REMARK  120  A    between atoms: _265  and  _267
REMARK  121  A    between atoms: _267  and  _268
REMARK  122  A    between atoms: _267  and  _270
REMARK  123  A    between atoms: _270  and  _271
REMARK  124  A    between atoms: _274  and  _276
REMARK  125  A    between atoms: _276  and  _277
REMARK  126  A    between atoms: _276  and  _279
REMARK  127  A    between atoms: _279  and  _280
REMARK  128  A    between atoms: _280  and  _281
REMARK  129  A    between atoms: _284  and  _286
REMARK  130  A    between atoms: _286  and  _287
REMARK  131  A    between atoms: _289  and  _291
REMARK  132  A    between atoms: _291  and  _292
REMARK  133  A    between atoms: _294  and  _296
REMARK  134  A    between atoms: _296  and  _297
REMARK  135  A    between atoms: _300  and  _302
REMARK  136  A    between atoms: _302  and  _303
REMARK  137  A    between atoms: _302  and  _305
REMARK  138  A    between atoms: _305  and  _306
REMARK  139  A    between atoms: _309  and  _311
REMARK  140  A    between atoms: _311  and  _312
REMARK  141  A    between atoms: _311  and  _314
REMARK  142  A    between atoms: _314  and  _315
REMARK  143  A    between atoms: _318  and  _320
REMARK  144  A    between atoms: _320  and  _321
REMARK  145  A    between atoms: _320  and  _323
REMARK  146  A    between atoms: _323  and  _324
REMARK  147  A    between atoms: _327  and  _329
REMARK  148  A    between atoms: _329  and  _330
REMARK  149  A    between atoms: _329  and  _332
REMARK  150  A    between atoms: _332  and  _333
REMARK  151  A    between atoms: _336  and  _338
REMARK  152  A    between atoms: _338  and  _339
REMARK  153  A    between atoms: _338  and  _341
REMARK  154  A    between atoms: _341  and  _342
REMARK  155  A    between atoms: _345  and  _347
REMARK  156  A    between atoms: _347  and  _348
REMARK  157  A    between atoms: _347  and  _350
REMARK  158  A    between atoms: _350  and  _351
REMARK  159  A    between atoms: _356  and  _358
REMARK  160  A    between atoms: _358  and  _359
REMARK  161  A    between atoms: _358  and  _361
REMARK  162  A    between atoms: _361  and  _362
REMARK  163  A    between atoms: _365  and  _367
REMARK  164  A    between atoms: _367  and  _368
REMARK  165  A    between atoms: _367  and  _370
REMARK  166  A    between atoms: _370  and  _371
REMARK  167  A    between atoms: _371  and  _372
REMARK  168  A    between atoms: _372  and  _373
REMARK  169  A    between atoms: _373  and  _374
REMARK  170  A    between atoms: _378  and  _380
REMARK  171  A    between atoms: _380  and  _381
REMARK  172  A    between atoms: _380  and  _383
REMARK  173  A    between atoms: _383  and  _384
REMARK  174  A    between atoms: _386  and  _388
REMARK  175  A    between atoms: _388  and  _389
REMARK  176  A    between atoms: _388  and  _391
REMARK  177  A    between atoms: _391  and  _392
REMARK  178  A    between atoms: _395  and  _397
REMARK  179  A    between atoms: _397  and  _398
REMARK  180  A    between atoms: _397  and  _400
REMARK  181  A    between atoms: _400  and  _401
REMARK  182  A    between atoms: _403  and  _405
REMARK  183  A    between atoms: _405  and  _406
REMARK  184  A    between atoms: _405  and  _408
REMARK  185  A    between atoms: _408  and  _409
REMARK  186  A    between atoms: _412  and  _414
REMARK  187  A    between atoms: _414  and  _415
REMARK  188  A    between atoms: _414  and  _417
REMARK  189  A    between atoms: _417  and  _418
REMARK  190  A    between atoms: _421  and  _423
REMARK  191  A    between atoms: _423  and  _424
REMARK  192  A    between atoms: _423  and  _426
REMARK  193  A    between atoms: _426  and  _427
REMARK  194  A    between atoms: _430  and  _432
REMARK  195  A    between atoms: _432  and  _433
REMARK  196  A    between atoms: _432  and  _435
REMARK  197  A    between atoms: _435  and  _436
REMARK  198  A    between atoms: _439  and  _441
REMARK  199  A    between atoms: _441  and  _442
REMARK  200  A    between atoms: _441  and  _444
REMARK  201  A    between atoms: _444  and  _445
REMARK  202  A    between atoms: _447  and  _449
REMARK  203  A    between atoms: _449  and  _450
REMARK  204  A    between atoms: _449  and  _452
REMARK  205  A    between atoms: _452  and  _453
REMARK  206  A    between atoms: _456  and  _458
REMARK  207  A    between atoms: _458  and  _459
REMARK  208  A    between atoms: _458  and  _461
REMARK  209  A    between atoms: _461  and  _462
REMARK  210  A    between atoms: _468  and  _470
REMARK  211  A    between atoms: _470  and  _471
REMARK  212  A    between atoms: _473  and  _475
REMARK  213  A    between atoms: _475  and  _476
REMARK  214  A    between atoms: _475  and  _478
REMARK  215  A    between atoms: _478  and  _479
REMARK  216  A    between atoms: _479  and  _480
REMARK  217  A    between atoms: _482  and  _484
REMARK  218  A    between atoms: _484  and  _485
REMARK  219  A    between atoms: _484  and  _487
REMARK  220  A    between atoms: _487  and  _488
REMARK  221  A    between atoms: _488  and  _489
REMARK  222  A    between atoms: _489  and  _490
REMARK  223  A    between atoms: _499  and  _501
REMARK  224  A    between atoms: _501  and  _502
REMARK  225  A    between atoms: _501  and  _504
REMARK  226  A    between atoms: _504  and  _505
REMARK  227  A    between atoms: _505  and  _506
REMARK  228  A    between atoms: _511  and  _513
REMARK  229  A    between atoms: _513  and  _514
REMARK  230  A    between atoms: _513  and  _516
REMARK  231  A    between atoms: _516  and  _517
REMARK  232  A    between atoms: _517  and  _518
REMARK  233  A    between atoms: _518  and  _519
REMARK                            x       y       z     vdW  Elec       q    Type
REMARK                         _______ _______ _______ _____ _____    ______ ____
ROOT
ATOM      1  O   HOH     1      37.576  11.668  16.687  0.00  0.00    +0.000 OA
ENDROOT
TORSDOF 0
REMARK  Name = ../refined-set-2016/4app/4app_pocket.pdb
REMARK  233 active torsions:
REMARK  status: ('A' for Active; 'I' for Inactive)
REMARK    1  A    between atoms: _1  and  _3
REMARK    2  A    between atoms: _3  and  _4
REMARK    3  A    between atoms: _3  and  _6
REMARK    4  A    between atoms: _6  and  _7
REMARK    5  A    between atoms: _10  and  _12
REMARK    6  A    between atoms: _12  and  _13
REMARK    7  A    between atoms: _15  and  _17
REMARK    8  A    between atoms: _17  and  _18
REMARK    9  A    between atoms: _17  and  _20
REMARK   10  A    between atoms: _20  and  _21
REMARK   11  A    between atoms: _21  and  _22
REMARK   12  A    between atoms: _25  and  _27
REMARK   13  A    between atoms: _27  and  _28
REMARK   14  A    between atoms: _30  and  _32
REMARK   15  A    between atoms: _32  and  _33
REMARK   16  A    between atoms: _32  and  _35
REMARK   17  A    between atoms: _35  and  _36
REMARK   18  A    between atoms: _38  and  _40
REMARK   19  A    between atoms: _40  and  _41
REMARK   20  A    between atoms: _40  and  _43
REMARK   21  A    between atoms: _43  and  _44
REMARK   22  A    between atoms: _47  and  _49
REMARK   23  A    between atoms: _49  and  _50
REMARK   24  A    between atoms: _52  and  _54
REMARK   25  A    between atoms: _54  and  _55
REMARK   26  A    between atoms: _54  and  _57
REMARK   27  A    between atoms: _57  and  _58
REMARK   28  A    between atoms: _61  and  _63
REMARK   29  A    between atoms: _63  and  _64
REMARK   30  A    between atoms: _63  and  _66
REMARK   31  A    between atoms: _69  and  _71
REMARK   32  A    between atoms: _71  and  _72
REMARK   33  A    between atoms: _71  and  _74
REMARK   34  A    between atoms: _76  and  _78
REMARK   35  A    between atoms: _78  and  _79
REMARK   36  A    between atoms: _78  and  _81
REMARK   37  A    between atoms: _81  and  _82
REMARK   38  A    between atoms: _85  and  _87
REMARK   39  A    between atoms: _87  and  _88
REMARK   40  A    between atoms: _87  and  _90
REMARK   41  A    between atoms: _90  and  _91
REMARK   42  A    between atoms: _94  and  _96
REMARK   43  A    between atoms: _96  and  _97
REMARK   44  A    between atoms: _96  and  _99
REMARK   45  A    between atoms: _102  and  _104
REMARK   46  A    between atoms: _104  and  _105
REMARK   47  A    between atoms: _108  and  _110
REMARK   48  A    between atoms: _110  and  _111
REMARK   49  A    between atoms: _110  and  _113
REMARK   50  A    between atoms: _116  and  _118
REMARK   51  A    between atoms: _118  and  _119
REMARK   52  A    between atoms: _118  and  _121
REMARK   53  A    between atoms: _121  and  _122
REMARK   54  A    between atoms: _122  and  _123
REMARK   55  A    between atoms: _123  and  _124
REMARK   56  A    between atoms: _124  and  _125
REMARK   57  A    between atoms: _129  and  _131
REMARK   58  A    between atoms: _131  and  _132
REMARK   59  A    between atoms: _131  and  _134
REMARK   60  A    between atoms: _134  and  _135
REMARK   61  A    between atoms: _135  and  _136
REMARK   62  A    between atoms: _136  and  _137
REMARK   63  A    between atoms: _137  and  _138
REMARK   64  A    between atoms: _142  and  _144
REMARK   65  A    between atoms: _144  and  _145
REMARK   66  A    between atoms: _144  and  _147
REMARK   67  A    between atoms: _147  and  _148
REMARK   68  A    between atoms: _148  and  _149
REMARK   69  A    between atoms: _151  and  _153
REMARK   70  A    between atoms: _153  and  _154
REMARK   71  A    between atoms: _153  and  _156
REMARK   72  A    between atoms: _156  and  _157
REMARK   73  A    between atoms: _160  and  _162
REMARK   74  A    between atoms: _162  and  _163
REMARK   75  A    between atoms: _162  and  _165
REMARK   76  A    between atoms: _165  and  _166
REMARK   77  A    between atoms: _166  and  _167
REMARK   78  A    between atoms: _172  and  _174
REMARK   79  A    between atoms: _174  and  _175
REMARK   80  A    between atoms: _174  and  _177
REMARK   81  A    between atoms: _177  and  _178
REMARK   82  A    between atoms: _178  and  _179
REMARK   83  A    between atoms: _182  and  _184
REMARK   84  A    between atoms: _184  and  _185
REMARK   85  A    between atoms: _184  and  _187
REMARK   86  A    between atoms: _190  and  _192
REMARK   87  A    between atoms: _192  and  _193
REMARK   88  A    between atoms: _192  and  _195
REMARK   89  A    between atoms: _195  and  _196
REMARK   90  A    between atoms: _196  and  _197
REMARK   91  A    between atoms: _200  and  _202
REMARK   92  A    between atoms: _202  and  _203
REMARK   93  A    between atoms: _202  and  _205
REMARK   94  A    between atoms: _205  and  _206
REMARK   95  A    between atoms: _206  and  _207
REMARK   96  A    between atoms: _209  and  _211
REMARK   97  A    between atoms: _211  and  _212
REMARK   98  A    between atoms: _211  and  _214
REMARK   99  A    between atoms: _214  and  _215
REMARK  100  A    between atoms: _218  and  _220
REMARK  101  A    between atoms: _220  and  _221
REMARK  102  A    between atoms: _220  and  _223
REMARK  103  A    between atoms: _226  and  _228
REMARK  104  A    between atoms: _228  and  _229
REMARK  105  A    between atoms: _228  and  _231
REMARK  106  A    between atoms: _234  and  _236
REMARK  107  A    between atoms: _236  and  _237
REMARK  108  A    between atoms: _236  and  _239
REMARK  109  A    between atoms: _239  and  _240
REMARK  110  A    between atoms: _240  and  _241
REMARK  111  A    between atoms: _243  and  _245
REMARK  112  A    between atoms: _245  and  _246
REMARK  113  A    between atoms: _245  and  _248
REMARK  114  A    between atoms: _248  and  _249
REMARK  115  A    between atoms: _249  and  _250
REMARK  116  A    between atoms: _253  and  _255
REMARK  117  A    between atoms: _255  and  _256
REMARK  118  A    between atoms: _255  and  _258
REMARK  119  A    between atoms: _258  and  _259
REMARK  120  A    between atoms: _265  and  _267
REMARK  121  A    between atoms: _267  and  _268
REMARK  122  A    between atoms: _267  and  _270
REMARK  123  A    between atoms: _270  and  _271
REMARK  124  A    between atoms: _274  and  _276
REMARK  125  A    between atoms: _276  and  _277
REMARK  126  A    between atoms: _276  and  _279
REMARK  127  A    between atoms: _279  and  _280
REMARK  128  A    between atoms: _280  and  _281
REMARK  129  A    between atoms: _284  and  _286
REMARK  130  A    between atoms: _286  and  _287
REMARK  131  A    between atoms: _289  and  _291
REMARK  132  A    between atoms: _291  and  _292
REMARK  133  A    between atoms: _294  and  _296
REMARK  134  A    between atoms: _296  and  _297
REMARK  135  A    between atoms: _300  and  _302
REMARK  136  A    between atoms: _302  and  _303
REMARK  137  A    between atoms: _302  and  _305
REMARK  138  A    between atoms: _305  and  _306
REMARK  139  A    between atoms: _309  and  _311
REMARK  140  A    between atoms: _311  and  _312
REMARK  141  A    between atoms: _311  and  _314
REMARK  142  A    between atoms: _314  and  _315
REMARK  143  A    between atoms: _318  and  _320
REMARK  144  A    between atoms: _320  and  _321
REMARK  145  A    between atoms: _320  and  _323
REMARK  146  A    between atoms: _323  and  _324
REMARK  147  A    between atoms: _327  and  _329
REMARK  148  A    between atoms: _329  and  _330
REMARK  149  A    between atoms: _329  and  _332
REMARK  150  A    between atoms: _332  and  _333
REMARK  151  A    between atoms: _336  and  _338
REMARK  152  A    between atoms: _338  and  _339
REMARK  153  A    between atoms: _338  and  _341
REMARK  154  A    between atoms: _341  and  _342
REMARK  155  A    between atoms: _345  and  _347
REMARK  156  A    between atoms: _347  and  _348
REMARK  157  A    between atoms: _347  and  _350
REMARK  158  A    between atoms: _350  and  _351
REMARK  159  A    between atoms: _356  and  _358
REMARK  160  A    between atoms: _358  and  _359
REMARK  161  A    between atoms: _358  and  _361
REMARK  162  A    between atoms: _361  and  _362
REMARK  163  A    between atoms: _365  and  _367
REMARK  164  A    between atoms: _367  and  _368
REMARK  165  A    between atoms: _367  and  _370
REMARK  166  A    between atoms: _370  and  _371
REMARK  167  A    between atoms: _371  and  _372
REMARK  168  A    between atoms: _372  and  _373
REMARK  169  A    between atoms: _373  and  _374
REMARK  170  A    between atoms: _378  and  _380
REMARK  171  A    between atoms: _380  and  _381
REMARK  172  A    between atoms: _380  and  _383
REMARK  173  A    between atoms: _383  and  _384
REMARK  174  A    between atoms: _386  and  _388
REMARK  175  A    between atoms: _388  and  _389
REMARK  176  A    between atoms: _388  and  _391
REMARK  177  A    between atoms: _391  and  _392
REMARK  178  A    between atoms: _395  and  _397
REMARK  179  A    between atoms: _397  and  _398
REMARK  180  A    between atoms: _397  and  _400
REMARK  181  A    between atoms: _400  and  _401
REMARK  182  A    between atoms: _403  and  _405
REMARK  183  A    between atoms: _405  and  _406
REMARK  184  A    between atoms: _405  and  _408
REMARK  185  A    between atoms: _408  and  _409
REMARK  186  A    between atoms: _412  and  _414
REMARK  187  A    between atoms: _414  and  _415
REMARK  188  A    between atoms: _414  and  _417
REMARK  189  A    between atoms: _417  and  _418
REMARK  190  A    between atoms: _421  and  _423
REMARK  191  A    between atoms: _423  and  _424
REMARK  192  A    between atoms: _423  and  _426
REMARK  193  A    between atoms: _426  and  _427
REMARK  194  A    between atoms: _430  and  _432
REMARK  195  A    between atoms: _432  and  _433
REMARK  196  A    between atoms: _432  and  _435
REMARK  197  A    between atoms: _435  and  _436
REMARK  198  A    between atoms: _439  and  _441
REMARK  199  A    between atoms: _441  and  _442
REMARK  200  A    between atoms: _441  and  _444
REMARK  201  A    between atoms: _444  and  _445
REMARK  202  A    between atoms: _447  and  _449
REMARK  203  A    between atoms: _449  and  _450
REMARK  204  A    between atoms: _449  and  _452
REMARK  205  A    between atoms: _452  and  _453
REMARK  206  A    between atoms: _456  and  _458
REMARK  207  A    between atoms: _458  and  _459
REMARK  208  A    between atoms: _458  and  _461
REMARK  209  A    between atoms: _461  and  _462
REMARK  210  A    between atoms: _468  and  _470
REMARK  211  A    between atoms: _470  and  _471
REMARK  212  A    between atoms: _473  and  _475
REMARK  213  A    between atoms: _475  and  _476
REMARK  214  A    between atoms: _475  and  _478
REMARK  215  A    between atoms: _478  and  _479
REMARK  216  A    between atoms: _479  and  _480
REMARK  217  A    between atoms: _482  and  _484
REMARK  218  A    between atoms: _484  and  _485
REMARK  219  A    between atoms: _484  and  _487
REMARK  220  A    between atoms: _487  and  _488
REMARK  221  A    between atoms: _488  and  _489
REMARK  222  A    between atoms: _489  and  _490
REMARK  223  A    between atoms: _499  and  _501
REMARK  224  A    between atoms: _501  and  _502
REMARK  225  A    between atoms: _501  and  _504
REMARK  226  A    between atoms: _504  and  _505
REMARK  227  A    between atoms: _505  and  _506
REMARK  228  A    between atoms: _511  and  _513
REMARK  229  A    between atoms: _513  and  _514
REMARK  230  A    between atoms: _513  and  _516
REMARK  231  A    between atoms: _516  and  _517
REMARK  232  A    between atoms: _517  and  _518
REMARK  233  A    between atoms: _518  and  _519
REMARK                            x       y       z     vdW  Elec       q    Type
REMARK                         _______ _______ _______ _____ _____    ______ ____
ROOT
ATOM      1  O   HOH     1      41.046   6.054  10.557  0.00  0.00    +0.000 OA
ENDROOT
TORSDOF 0
REMARK  Name = ../refined-set-2016/4app/4app_pocket.pdb
REMARK  233 active torsions:
REMARK  status: ('A' for Active; 'I' for Inactive)
REMARK    1  A    between atoms: _1  and  _3
REMARK    2  A    between atoms: _3  and  _4
REMARK    3  A    between atoms: _3  and  _6
REMARK    4  A    between atoms: _6  and  _7
REMARK    5  A    between atoms: _10  and  _12
REMARK    6  A    between atoms: _12  and  _13
REMARK    7  A    between atoms: _15  and  _17
REMARK    8  A    between atoms: _17  and  _18
REMARK    9  A    between atoms: _17  and  _20
REMARK   10  A    between atoms: _20  and  _21
REMARK   11  A    between atoms: _21  and  _22
REMARK   12  A    between atoms: _25  and  _27
REMARK   13  A    between atoms: _27  and  _28
REMARK   14  A    between atoms: _30  and  _32
REMARK   15  A    between atoms: _32  and  _33
REMARK   16  A    between atoms: _32  and  _35
REMARK   17  A    between atoms: _35  and  _36
REMARK   18  A    between atoms: _38  and  _40
REMARK   19  A    between atoms: _40  and  _41
REMARK   20  A    between atoms: _40  and  _43
REMARK   21  A    between atoms: _43  and  _44
REMARK   22  A    between atoms: _47  and  _49
REMARK   23  A    between atoms: _49  and  _50
REMARK   24  A    between atoms: _52  and  _54
REMARK   25  A    between atoms: _54  and  _55
REMARK   26  A    between atoms: _54  and  _57
REMARK   27  A    between atoms: _57  and  _58
REMARK   28  A    between atoms: _61  and  _63
REMARK   29  A    between atoms: _63  and  _64
REMARK   30  A    between atoms: _63  and  _66
REMARK   31  A    between atoms: _69  and  _71
REMARK   32  A    between atoms: _71  and  _72
REMARK   33  A    between atoms: _71  and  _74
REMARK   34  A    between atoms: _76  and  _78
REMARK   35  A    between atoms: _78  and  _79
REMARK   36  A    between atoms: _78  and  _81
REMARK   37  A    between atoms: _81  and  _82
REMARK   38  A    between atoms: _85  and  _87
REMARK   39  A    between atoms: _87  and  _88
REMARK   40  A    between atoms: _87  and  _90
REMARK   41  A    between atoms: _90  and  _91
REMARK   42  A    between atoms: _94  and  _96
REMARK   43  A    between atoms: _96  and  _97
REMARK   44  A    between atoms: _96  and  _99
REMARK   45  A    between atoms: _102  and  _104
REMARK   46  A    between atoms: _104  and  _105
REMARK   47  A    between atoms: _108  and  _110
REMARK   48  A    between atoms: _110  and  _111
REMARK   49  A    between atoms: _110  and  _113
REMARK   50  A    between atoms: _116  and  _118
REMARK   51  A    between atoms: _118  and  _119
REMARK   52  A    between atoms: _118  and  _121
REMARK   53  A    between atoms: _121  and  _122
REMARK   54  A    between atoms: _122  and  _123
REMARK   55  A    between atoms: _123  and  _124
REMARK   56  A    between atoms: _124  and  _125
REMARK   57  A    between atoms: _129  and  _131
REMARK   58  A    between atoms: _131  and  _132
REMARK   59  A    between atoms: _131  and  _134
REMARK   60  A    between atoms: _134  and  _135
REMARK   61  A    between atoms: _135  and  _136
REMARK   62  A    between atoms: _136  and  _137
REMARK   63  A    between atoms: _137  and  _138
REMARK   64  A    between atoms: _142  and  _144
REMARK   65  A    between atoms: _144  and  _145
REMARK   66  A    between atoms: _144  and  _147
REMARK   67  A    between atoms: _147  and  _148
REMARK   68  A    between atoms: _148  and  _149
REMARK   69  A    between atoms: _151  and  _153
REMARK   70  A    between atoms: _153  and  _154
REMARK   71  A    between atoms: _153  and  _156
REMARK   72  A    between atoms: _156  and  _157
REMARK   73  A    between atoms: _160  and  _162
REMARK   74  A    between atoms: _162  and  _163
REMARK   75  A    between atoms: _162  and  _165
REMARK   76  A    between atoms: _165  and  _166
REMARK   77  A    between atoms: _166  and  _167
REMARK   78  A    between atoms: _172  and  _174
REMARK   79  A    between atoms: _174  and  _175
REMARK   80  A    between atoms: _174  and  _177
REMARK   81  A    between atoms: _177  and  _178
REMARK   82  A    between atoms: _178  and  _179
REMARK   83  A    between atoms: _182  and  _184
REMARK   84  A    between atoms: _184  and  _185
REMARK   85  A    between atoms: _184  and  _187
REMARK   86  A    between atoms: _190  and  _192
REMARK   87  A    between atoms: _192  and  _193
REMARK   88  A    between atoms: _192  and  _195
REMARK   89  A    between atoms: _195  and  _196
REMARK   90  A    between atoms: _196  and  _197
REMARK   91  A    between atoms: _200  and  _202
REMARK   92  A    between atoms: _202  and  _203
REMARK   93  A    between atoms: _202  and  _205
REMARK   94  A    between atoms: _205  and  _206
REMARK   95  A    between atoms: _206  and  _207
REMARK   96  A    between atoms: _209  and  _211
REMARK   97  A    between atoms: _211  and  _212
REMARK   98  A    between atoms: _211  and  _214
REMARK   99  A    between atoms: _214  and  _215
REMARK  100  A    between atoms: _218  and  _220
REMARK  101  A    between atoms: _220  and  _221
REMARK  102  A    between atoms: _220  and  _223
REMARK  103  A    between atoms: _226  and  _228
REMARK  104  A    between atoms: _228  and  _229
REMARK  105  A    between atoms: _228  and  _231
REMARK  106  A    between atoms: _234  and  _236
REMARK  107  A    between atoms: _236  and  _237
REMARK  108  A    between atoms: _236  and  _239
REMARK  109  A    between atoms: _239  and  _240
REMARK  110  A    between atoms: _240  and  _241
REMARK  111  A    between atoms: _243  and  _245
REMARK  112  A    between atoms: _245  and  _246
REMARK  113  A    between atoms: _245  and  _248
REMARK  114  A    between atoms: _248  and  _249
REMARK  115  A    between atoms: _249  and  _250
REMARK  116  A    between atoms: _253  and  _255
REMARK  117  A    between atoms: _255  and  _256
REMARK  118  A    between atoms: _255  and  _258
REMARK  119  A    between atoms: _258  and  _259
REMARK  120  A    between atoms: _265  and  _267
REMARK  121  A    between atoms: _267  and  _268
REMARK  122  A    between atoms: _267  and  _270
REMARK  123  A    between atoms: _270  and  _271
REMARK  124  A    between atoms: _274  and  _276
REMARK  125  A    between atoms: _276  and  _277
REMARK  126  A    between atoms: _276  and  _279
REMARK  127  A    between atoms: _279  and  _280
REMARK  128  A    between atoms: _280  and  _281
REMARK  129  A    between atoms: _284  and  _286
REMARK  130  A    between atoms: _286  and  _287
REMARK  131  A    between atoms: _289  and  _291
REMARK  132  A    between atoms: _291  and  _292
REMARK  133  A    between atoms: _294  and  _296
REMARK  134  A    between atoms: _296  and  _297
REMARK  135  A    between atoms: _300  and  _302
REMARK  136  A    between atoms: _302  and  _303
REMARK  137  A    between atoms: _302  and  _305
REMARK  138  A    between atoms: _305  and  _306
REMARK  139  A    between atoms: _309  and  _311
REMARK  140  A    between atoms: _311  and  _312
REMARK  141  A    between atoms: _311  and  _314
REMARK  142  A    between atoms: _314  and  _315
REMARK  143  A    between atoms: _318  and  _320
REMARK  144  A    between atoms: _320  and  _321
REMARK  145  A    between atoms: _320  and  _323
REMARK  146  A    between atoms: _323  and  _324
REMARK  147  A    between atoms: _327  and  _329
REMARK  148  A    between atoms: _329  and  _330
REMARK  149  A    between atoms: _329  and  _332
REMARK  150  A    between atoms: _332  and  _333
REMARK  151  A    between atoms: _336  and  _338
REMARK  152  A    between atoms: _338  and  _339
REMARK  153  A    between atoms: _338  and  _341
REMARK  154  A    between atoms: _341  and  _342
REMARK  155  A    between atoms: _345  and  _347
REMARK  156  A    between atoms: _347  and  _348
REMARK  157  A    between atoms: _347  and  _350
REMARK  158  A    between atoms: _350  and  _351
REMARK  159  A    between atoms: _356  and  _358
REMARK  160  A    between atoms: _358  and  _359
REMARK  161  A    between atoms: _358  and  _361
REMARK  162  A    between atoms: _361  and  _362
REMARK  163  A    between atoms: _365  and  _367
REMARK  164  A    between atoms: _367  and  _368
REMARK  165  A    between atoms: _367  and  _370
REMARK  166  A    between atoms: _370  and  _371
REMARK  167  A    between atoms: _371  and  _372
REMARK  168  A    between atoms: _372  and  _373
REMARK  169  A    between atoms: _373  and  _374
REMARK  170  A    between atoms: _378  and  _380
REMARK  171  A    between atoms: _380  and  _381
REMARK  172  A    between atoms: _380  and  _383
REMARK  173  A    between atoms: _383  and  _384
REMARK  174  A    between atoms: _386  and  _388
REMARK  175  A    between atoms: _388  and  _389
REMARK  176  A    between atoms: _388  and  _391
REMARK  177  A    between atoms: _391  and  _392
REMARK  178  A    between atoms: _395  and  _397
REMARK  179  A    between atoms: _397  and  _398
REMARK  180  A    between atoms: _397  and  _400
REMARK  181  A    between atoms: _400  and  _401
REMARK  182  A    between atoms: _403  and  _405
REMARK  183  A    between atoms: _405  and  _406
REMARK  184  A    between atoms: _405  and  _408
REMARK  185  A    between atoms: _408  and  _409
REMARK  186  A    between atoms: _412  and  _414
REMARK  187  A    between atoms: _414  and  _415
REMARK  188  A    between atoms: _414  and  _417
REMARK  189  A    between atoms: _417  and  _418
REMARK  190  A    between atoms: _421  and  _423
REMARK  191  A    between atoms: _423  and  _424
REMARK  192  A    between atoms: _423  and  _426
REMARK  193  A    between atoms: _426  and  _427
REMARK  194  A    between atoms: _430  and  _432
REMARK  195  A    between atoms: _432  and  _433
REMARK  196  A    between atoms: _432  and  _435
REMARK  197  A    between atoms: _435  and  _436
REMARK  198  A    between atoms: _439  and  _441
REMARK  199  A    between atoms: _441  and  _442
REMARK  200  A    between atoms: _441  and  _444
REMARK  201  A    between atoms: _444  and  _445
REMARK  202  A    between atoms: _447  and  _449
REMARK  203  A    between atoms: _449  and  _450
REMARK  204  A    between atoms: _449  and  _452
REMARK  205  A    between atoms: _452  and  _453
REMARK  206  A    between atoms: _456  and  _458
REMARK  207  A    between atoms: _458  and  _459
REMARK  208  A    between atoms: _458  and  _461
REMARK  209  A    between atoms: _461  and  _462
REMARK  210  A    between atoms: _468  and  _470
REMARK  211  A    between atoms: _470  and  _471
REMARK  212  A    between atoms: _473  and  _475
REMARK  213  A    between atoms: _475  and  _476
REMARK  214  A    between atoms: _475  and  _478
REMARK  215  A    between atoms: _478  and  _479
REMARK  216  A    between atoms: _479  and  _480
REMARK  217  A    between atoms: _482  and  _484
REMARK  218  A    between atoms: _484  and  _485
REMARK  219  A    between atoms: _484  and  _487
REMARK  220  A    between atoms: _487  and  _488
REMARK  221  A    between atoms: _488  and  _489
REMARK  222  A    between atoms: _489  and  _490
REMARK  223  A    between atoms: _499  and  _501
REMARK  224  A    between atoms: _501  and  _502
REMARK  225  A    between atoms: _501  and  _504
REMARK  226  A    between atoms: _504  and  _505
REMARK  227  A    between atoms: _505  and  _506
REMARK  228  A    between atoms: _511  and  _513
REMARK  229  A    between atoms: _513  and  _514
REMARK  230  A    between atoms: _513  and  _516
REMARK  231  A    between atoms: _516  and  _517
REMARK  232  A    between atoms: _517  and  _518
REMARK  233  A    between atoms: _518  and  _519
REMARK                            x       y       z     vdW  Elec       q    Type
REMARK                         _______ _______ _______ _____ _____    ______ ____
ROOT
ATOM      1  O   HOH     1      44.528  29.484  12.590  0.00  0.00    +0.000 OA
ENDROOT
TORSDOF 0
REMARK  Name = ../refined-set-2016/4app/4app_pocket.pdb
REMARK  233 active torsions:
REMARK  status: ('A' for Active; 'I' for Inactive)
REMARK    1  A    between atoms: _1  and  _3
REMARK    2  A    between atoms: _3  and  _4
REMARK    3  A    between atoms: _3  and  _6
REMARK    4  A    between atoms: _6  and  _7
REMARK    5  A    between atoms: _10  and  _12
REMARK    6  A    between atoms: _12  and  _13
REMARK    7  A    between atoms: _15  and  _17
REMARK    8  A    between atoms: _17  and  _18
REMARK    9  A    between atoms: _17  and  _20
REMARK   10  A    between atoms: _20  and  _21
REMARK   11  A    between atoms: _21  and  _22
REMARK   12  A    between atoms: _25  and  _27
REMARK   13  A    between atoms: _27  and  _28
REMARK   14  A    between atoms: _30  and  _32
REMARK   15  A    between atoms: _32  and  _33
REMARK   16  A    between atoms: _32  and  _35
REMARK   17  A    between atoms: _35  and  _36
REMARK   18  A    between atoms: _38  and  _40
REMARK   19  A    between atoms: _40  and  _41
REMARK   20  A    between atoms: _40  and  _43
REMARK   21  A    between atoms: _43  and  _44
REMARK   22  A    between atoms: _47  and  _49
REMARK   23  A    between atoms: _49  and  _50
REMARK   24  A    between atoms: _52  and  _54
REMARK   25  A    between atoms: _54  and  _55
REMARK   26  A    between atoms: _54  and  _57
REMARK   27  A    between atoms: _57  and  _58
REMARK   28  A    between atoms: _61  and  _63
REMARK   29  A    between atoms: _63  and  _64
REMARK   30  A    between atoms: _63  and  _66
REMARK   31  A    between atoms: _69  and  _71
REMARK   32  A    between atoms: _71  and  _72
REMARK   33  A    between atoms: _71  and  _74
REMARK   34  A    between atoms: _76  and  _78
REMARK   35  A    between atoms: _78  and  _79
REMARK   36  A    between atoms: _78  and  _81
REMARK   37  A    between atoms: _81  and  _82
REMARK   38  A    between atoms: _85  and  _87
REMARK   39  A    between atoms: _87  and  _88
REMARK   40  A    between atoms: _87  and  _90
REMARK   41  A    between atoms: _90  and  _91
REMARK   42  A    between atoms: _94  and  _96
REMARK   43  A    between atoms: _96  and  _97
REMARK   44  A    between atoms: _96  and  _99
REMARK   45  A    between atoms: _102  and  _104
REMARK   46  A    between atoms: _104  and  _105
REMARK   47  A    between atoms: _108  and  _110
REMARK   48  A    between atoms: _110  and  _111
REMARK   49  A    between atoms: _110  and  _113
REMARK   50  A    between atoms: _116  and  _118
REMARK   51  A    between atoms: _118  and  _119
REMARK   52  A    between atoms: _118  and  _121
REMARK   53  A    between atoms: _121  and  _122
REMARK   54  A    between atoms: _122  and  _123
REMARK   55  A    between atoms: _123  and  _124
REMARK   56  A    between atoms: _124  and  _125
REMARK   57  A    between atoms: _129  and  _131
REMARK   58  A    between atoms: _131  and  _132
REMARK   59  A    between atoms: _131  and  _134
REMARK   60  A    between atoms: _134  and  _135
REMARK   61  A    between atoms: _135  and  _136
REMARK   62  A    between atoms: _136  and  _137
REMARK   63  A    between atoms: _137  and  _138
REMARK   64  A    between atoms: _142  and  _144
REMARK   65  A    between atoms: _144  and  _145
REMARK   66  A    between atoms: _144  and  _147
REMARK   67  A    between atoms: _147  and  _148
REMARK   68  A    between atoms: _148  and  _149
REMARK   69  A    between atoms: _151  and  _153
REMARK   70  A    between atoms: _153  and  _154
REMARK   71  A    between atoms: _153  and  _156
REMARK   72  A    between atoms: _156  and  _157
REMARK   73  A    between atoms: _160  and  _162
REMARK   74  A    between atoms: _162  and  _163
REMARK   75  A    between atoms: _162  and  _165
REMARK   76  A    between atoms: _165  and  _166
REMARK   77  A    between atoms: _166  and  _167
REMARK   78  A    between atoms: _172  and  _174
REMARK   79  A    between atoms: _174  and  _175
REMARK   80  A    between atoms: _174  and  _177
REMARK   81  A    between atoms: _177  and  _178
REMARK   82  A    between atoms: _178  and  _179
REMARK   83  A    between atoms: _182  and  _184
REMARK   84  A    between atoms: _184  and  _185
REMARK   85  A    between atoms: _184  and  _187
REMARK   86  A    between atoms: _190  and  _192
REMARK   87  A    between atoms: _192  and  _193
REMARK   88  A    between atoms: _192  and  _195
REMARK   89  A    between atoms: _195  and  _196
REMARK   90  A    between atoms: _196  and  _197
REMARK   91  A    between atoms: _200  and  _202
REMARK   92  A    between atoms: _202  and  _203
REMARK   93  A    between atoms: _202  and  _205
REMARK   94  A    between atoms: _205  and  _206
REMARK   95  A    between atoms: _206  and  _207
REMARK   96  A    between atoms: _209  and  _211
REMARK   97  A    between atoms: _211  and  _212
REMARK   98  A    between atoms: _211  and  _214
REMARK   99  A    between atoms: _214  and  _215
REMARK  100  A    between atoms: _218  and  _220
REMARK  101  A    between atoms: _220  and  _221
REMARK  102  A    between atoms: _220  and  _223
REMARK  103  A    between atoms: _226  and  _228
REMARK  104  A    between atoms: _228  and  _229
REMARK  105  A    between atoms: _228  and  _231
REMARK  106  A    between atoms: _234  and  _236
REMARK  107  A    between atoms: _236  and  _237
REMARK  108  A    between atoms: _236  and  _239
REMARK  109  A    between atoms: _239  and  _240
REMARK  110  A    between atoms: _240  and  _241
REMARK  111  A    between atoms: _243  and  _245
REMARK  112  A    between atoms: _245  and  _246
REMARK  113  A    between atoms: _245  and  _248
REMARK  114  A    between atoms: _248  and  _249
REMARK  115  A    between atoms: _249  and  _250
REMARK  116  A    between atoms: _253  and  _255
REMARK  117  A    between atoms: _255  and  _256
REMARK  118  A    between atoms: _255  and  _258
REMARK  119  A    between atoms: _258  and  _259
REMARK  120  A    between atoms: _265  and  _267
REMARK  121  A    between atoms: _267  and  _268
REMARK  122  A    between atoms: _267  and  _270
REMARK  123  A    between atoms: _270  and  _271
REMARK  124  A    between atoms: _274  and  _276
REMARK  125  A    between atoms: _276  and  _277
REMARK  126  A    between atoms: _276  and  _279
REMARK  127  A    between atoms: _279  and  _280
REMARK  128  A    between atoms: _280  and  _281
REMARK  129  A    between atoms: _284  and  _286
REMARK  130  A    between atoms: _286  and  _287
REMARK  131  A    between atoms: _289  and  _291
REMARK  132  A    between atoms: _291  and  _292
REMARK  133  A    between atoms: _294  and  _296
REMARK  134  A    between atoms: _296  and  _297
REMARK  135  A    between atoms: _300  and  _302
REMARK  136  A    between atoms: _302  and  _303
REMARK  137  A    between atoms: _302  and  _305
REMARK  138  A    between atoms: _305  and  _306
REMARK  139  A    between atoms: _309  and  _311
REMARK  140  A    between atoms: _311  and  _312
REMARK  141  A    between atoms: _311  and  _314
REMARK  142  A    between atoms: _314  and  _315
REMARK  143  A    between atoms: _318  and  _320
REMARK  144  A    between atoms: _320  and  _321
REMARK  145  A    between atoms: _320  and  _323
REMARK  146  A    between atoms: _323  and  _324
REMARK  147  A    between atoms: _327  and  _329
REMARK  148  A    between atoms: _329  and  _330
REMARK  149  A    between atoms: _329  and  _332
REMARK  150  A    between atoms: _332  and  _333
REMARK  151  A    between atoms: _336  and  _338
REMARK  152  A    between atoms: _338  and  _339
REMARK  153  A    between atoms: _338  and  _341
REMARK  154  A    between atoms: _341  and  _342
REMARK  155  A    between atoms: _345  and  _347
REMARK  156  A    between atoms: _347  and  _348
REMARK  157  A    between atoms: _347  and  _350
REMARK  158  A    between atoms: _350  and  _351
REMARK  159  A    between atoms: _356  and  _358
REMARK  160  A    between atoms: _358  and  _359
REMARK  161  A    between atoms: _358  and  _361
REMARK  162  A    between atoms: _361  and  _362
REMARK  163  A    between atoms: _365  and  _367
REMARK  164  A    between atoms: _367  and  _368
REMARK  165  A    between atoms: _367  and  _370
REMARK  166  A    between atoms: _370  and  _371
REMARK  167  A    between atoms: _371  and  _372
REMARK  168  A    between atoms: _372  and  _373
REMARK  169  A    between atoms: _373  and  _374
REMARK  170  A    between atoms: _378  and  _380
REMARK  171  A    between atoms: _380  and  _381
REMARK  172  A    between atoms: _380  and  _383
REMARK  173  A    between atoms: _383  and  _384
REMARK  174  A    between atoms: _386  and  _388
REMARK  175  A    between atoms: _388  and  _389
REMARK  176  A    between atoms: _388  and  _391
REMARK  177  A    between atoms: _391  and  _392
REMARK  178  A    between atoms: _395  and  _397
REMARK  179  A    between atoms: _397  and  _398
REMARK  180  A    between atoms: _397  and  _400
REMARK  181  A    between atoms: _400  and  _401
REMARK  182  A    between atoms: _403  and  _405
REMARK  183  A    between atoms: _405  and  _406
REMARK  184  A    between atoms: _405  and  _408
REMARK  185  A    between atoms: _408  and  _409
REMARK  186  A    between atoms: _412  and  _414
REMARK  187  A    between atoms: _414  and  _415
REMARK  188  A    between atoms: _414  and  _417
REMARK  189  A    between atoms: _417  and  _418
REMARK  190  A    between atoms: _421  and  _423
REMARK  191  A    between atoms: _423  and  _424
REMARK  192  A    between atoms: _423  and  _426
REMARK  193  A    between atoms: _426  and  _427
REMARK  194  A    between atoms: _430  and  _432
REMARK  195  A    between atoms: _432  and  _433
REMARK  196  A    between atoms: _432  and  _435
REMARK  197  A    between atoms: _435  and  _436
REMARK  198  A    between atoms: _439  and  _441
REMARK  199  A    between atoms: _441  and  _442
REMARK  200  A    between atoms: _441  and  _444
REMARK  201  A    between atoms: _444  and  _445
REMARK  202  A    between atoms: _447  and  _449
REMARK  203  A    between atoms: _449  and  _450
REMARK  204  A    between atoms: _449  and  _452
REMARK  205  A    between atoms: _452  and  _453
REMARK  206  A    between atoms: _456  and  _458
REMARK  207  A    between atoms: _458  and  _459
REMARK  208  A    between atoms: _458  and  _461
REMARK  209  A    between atoms: _461  and  _462
REMARK  210  A    between atoms: _468  and  _470
REMARK  211  A    between atoms: _470  and  _471
REMARK  212  A    between atoms: _473  and  _475
REMARK  213  A    between atoms: _475  and  _476
REMARK  214  A    between atoms: _475  and  _478
REMARK  215  A    between atoms: _478  and  _479
REMARK  216  A    between atoms: _479  and  _480
REMARK  217  A    between atoms: _482  and  _484
REMARK  218  A    between atoms: _484  and  _485
REMARK  219  A    between atoms: _484  and  _487
REMARK  220  A    between atoms: _487  and  _488
REMARK  221  A    between atoms: _488  and  _489
REMARK  222  A    between atoms: _489  and  _490
REMARK  223  A    between atoms: _499  and  _501
REMARK  224  A    between atoms: _501  and  _502
REMARK  225  A    between atoms: _501  and  _504
REMARK  226  A    between atoms: _504  and  _505
REMARK  227  A    between atoms: _505  and  _506
REMARK  228  A    between atoms: _511  and  _513
REMARK  229  A    between atoms: _513  and  _514
REMARK  230  A    between atoms: _513  and  _516
REMARK  231  A    between atoms: _516  and  _517
REMARK  232  A    between atoms: _517  and  _518
REMARK  233  A    between atoms: _518  and  _519
REMARK                            x       y       z     vdW  Elec       q    Type
REMARK                         _______ _______ _______ _____ _____    ______ ____
ROOT
ATOM      1  O   HOH     1      42.325  31.929  21.132  0.00  0.00    +0.000 OA
ENDROOT
TORSDOF 0
REMARK  Name = ../refined-set-2016/4app/4app_pocket.pdb
REMARK  233 active torsions:
REMARK  status: ('A' for Active; 'I' for Inactive)
REMARK    1  A    between atoms: _1  and  _3
REMARK    2  A    between atoms: _3  and  _4
REMARK    3  A    between atoms: _3  and  _6
REMARK    4  A    between atoms: _6  and  _7
REMARK    5  A    between atoms: _10  and  _12
REMARK    6  A    between atoms: _12  and  _13
REMARK    7  A    between atoms: _15  and  _17
REMARK    8  A    between atoms: _17  and  _18
REMARK    9  A    between atoms: _17  and  _20
REMARK   10  A    between atoms: _20  and  _21
REMARK   11  A    between atoms: _21  and  _22
REMARK   12  A    between atoms: _25  and  _27
REMARK   13  A    between atoms: _27  and  _28
REMARK   14  A    between atoms: _30  and  _32
REMARK   15  A    between atoms: _32  and  _33
REMARK   16  A    between atoms: _32  and  _35
REMARK   17  A    between atoms: _35  and  _36
REMARK   18  A    between atoms: _38  and  _40
REMARK   19  A    between atoms: _40  and  _41
REMARK   20  A    between atoms: _40  and  _43
REMARK   21  A    between atoms: _43  and  _44
REMARK   22  A    between atoms: _47  and  _49
REMARK   23  A    between atoms: _49  and  _50
REMARK   24  A    between atoms: _52  and  _54
REMARK   25  A    between atoms: _54  and  _55
REMARK   26  A    between atoms: _54  and  _57
REMARK   27  A    between atoms: _57  and  _58
REMARK   28  A    between atoms: _61  and  _63
REMARK   29  A    between atoms: _63  and  _64
REMARK   30  A    between atoms: _63  and  _66
REMARK   31  A    between atoms: _69  and  _71
REMARK   32  A    between atoms: _71  and  _72
REMARK   33  A    between atoms: _71  and  _74
REMARK   34  A    between atoms: _76  and  _78
REMARK   35  A    between atoms: _78  and  _79
REMARK   36  A    between atoms: _78  and  _81
REMARK   37  A    between atoms: _81  and  _82
REMARK   38  A    between atoms: _85  and  _87
REMARK   39  A    between atoms: _87  and  _88
REMARK   40  A    between atoms: _87  and  _90
REMARK   41  A    between atoms: _90  and  _91
REMARK   42  A    between atoms: _94  and  _96
REMARK   43  A    between atoms: _96  and  _97
REMARK   44  A    between atoms: _96  and  _99
REMARK   45  A    between atoms: _102  and  _104
REMARK   46  A    between atoms: _104  and  _105
REMARK   47  A    between atoms: _108  and  _110
REMARK   48  A    between atoms: _110  and  _111
REMARK   49  A    between atoms: _110  and  _113
REMARK   50  A    between atoms: _116  and  _118
REMARK   51  A    between atoms: _118  and  _119
REMARK   52  A    between atoms: _118  and  _121
REMARK   53  A    between atoms: _121  and  _122
REMARK   54  A    between atoms: _122  and  _123
REMARK   55  A    between atoms: _123  and  _124
REMARK   56  A    between atoms: _124  and  _125
REMARK   57  A    between atoms: _129  and  _131
REMARK   58  A    between atoms: _131  and  _132
REMARK   59  A    between atoms: _131  and  _134
REMARK   60  A    between atoms: _134  and  _135
REMARK   61  A    between atoms: _135  and  _136
REMARK   62  A    between atoms: _136  and  _137
REMARK   63  A    between atoms: _137  and  _138
REMARK   64  A    between atoms: _142  and  _144
REMARK   65  A    between atoms: _144  and  _145
REMARK   66  A    between atoms: _144  and  _147
REMARK   67  A    between atoms: _147  and  _148
REMARK   68  A    between atoms: _148  and  _149
REMARK   69  A    between atoms: _151  and  _153
REMARK   70  A    between atoms: _153  and  _154
REMARK   71  A    between atoms: _153  and  _156
REMARK   72  A    between atoms: _156  and  _157
REMARK   73  A    between atoms: _160  and  _162
REMARK   74  A    between atoms: _162  and  _163
REMARK   75  A    between atoms: _162  and  _165
REMARK   76  A    between atoms: _165  and  _166
REMARK   77  A    between atoms: _166  and  _167
REMARK   78  A    between atoms: _172  and  _174
REMARK   79  A    between atoms: _174  and  _175
REMARK   80  A    between atoms: _174  and  _177
REMARK   81  A    between atoms: _177  and  _178
REMARK   82  A    between atoms: _178  and  _179
REMARK   83  A    between atoms: _182  and  _184
REMARK   84  A    between atoms: _184  and  _185
REMARK   85  A    between atoms: _184  and  _187
REMARK   86  A    between atoms: _190  and  _192
REMARK   87  A    between atoms: _192  and  _193
REMARK   88  A    between atoms: _192  and  _195
REMARK   89  A    between atoms: _195  and  _196
REMARK   90  A    between atoms: _196  and  _197
REMARK   91  A    between atoms: _200  and  _202
REMARK   92  A    between atoms: _202  and  _203
REMARK   93  A    between atoms: _202  and  _205
REMARK   94  A    between atoms: _205  and  _206
REMARK   95  A    between atoms: _206  and  _207
REMARK   96  A    between atoms: _209  and  _211
REMARK   97  A    between atoms: _211  and  _212
REMARK   98  A    between atoms: _211  and  _214
REMARK   99  A    between atoms: _214  and  _215
REMARK  100  A    between atoms: _218  and  _220
REMARK  101  A    between atoms: _220  and  _221
REMARK  102  A    between atoms: _220  and  _223
REMARK  103  A    between atoms: _226  and  _228
REMARK  104  A    between atoms: _228  and  _229
REMARK  105  A    between atoms: _228  and  _231
REMARK  106  A    between atoms: _234  and  _236
REMARK  107  A    between atoms: _236  and  _237
REMARK  108  A    between atoms: _236  and  _239
REMARK  109  A    between atoms: _239  and  _240
REMARK  110  A    between atoms: _240  and  _241
REMARK  111  A    between atoms: _243  and  _245
REMARK  112  A    between atoms: _245  and  _246
REMARK  113  A    between atoms: _245  and  _248
REMARK  114  A    between atoms: _248  and  _249
REMARK  115  A    between atoms: _249  and  _250
REMARK  116  A    between atoms: _253  and  _255
REMARK  117  A    between atoms: _255  and  _256
REMARK  118  A    between atoms: _255  and  _258
REMARK  119  A    between atoms: _258  and  _259
REMARK  120  A    between atoms: _265  and  _267
REMARK  121  A    between atoms: _267  and  _268
REMARK  122  A    between atoms: _267  and  _270
REMARK  123  A    between atoms: _270  and  _271
REMARK  124  A    between atoms: _274  and  _276
REMARK  125  A    between atoms: _276  and  _277
REMARK  126  A    between atoms: _276  and  _279
REMARK  127  A    between atoms: _279  and  _280
REMARK  128  A    between atoms: _280  and  _281
REMARK  129  A    between atoms: _284  and  _286
REMARK  130  A    between atoms: _286  and  _287
REMARK  131  A    between atoms: _289  and  _291
REMARK  132  A    between atoms: _291  and  _292
REMARK  133  A    between atoms: _294  and  _296
REMARK  134  A    between atoms: _296  and  _297
REMARK  135  A    between atoms: _300  and  _302
REMARK  136  A    between atoms: _302  and  _303
REMARK  137  A    between atoms: _302  and  _305
REMARK  138  A    between atoms: _305  and  _306
REMARK  139  A    between atoms: _309  and  _311
REMARK  140  A    between atoms: _311  and  _312
REMARK  141  A    between atoms: _311  and  _314
REMARK  142  A    between atoms: _314  and  _315
REMARK  143  A    between atoms: _318  and  _320
REMARK  144  A    between atoms: _320  and  _321
REMARK  145  A    between atoms: _320  and  _323
REMARK  146  A    between atoms: _323  and  _324
REMARK  147  A    between atoms: _327  and  _329
REMARK  148  A    between atoms: _329  and  _330
REMARK  149  A    between atoms: _329  and  _332
REMARK  150  A    between atoms: _332  and  _333
REMARK  151  A    between atoms: _336  and  _338
REMARK  152  A    between atoms: _338  and  _339
REMARK  153  A    between atoms: _338  and  _341
REMARK  154  A    between atoms: _341  and  _342
REMARK  155  A    between atoms: _345  and  _347
REMARK  156  A    between atoms: _347  and  _348
REMARK  157  A    between atoms: _347  and  _350
REMARK  158  A    between atoms: _350  and  _351
REMARK  159  A    between atoms: _356  and  _358
REMARK  160  A    between atoms: _358  and  _359
REMARK  161  A    between atoms: _358  and  _361
REMARK  162  A    between atoms: _361  and  _362
REMARK  163  A    between atoms: _365  and  _367
REMARK  164  A    between atoms: _367  and  _368
REMARK  165  A    between atoms: _367  and  _370
REMARK  166  A    between atoms: _370  and  _371
REMARK  167  A    between atoms: _371  and  _372
REMARK  168  A    between atoms: _372  and  _373
REMARK  169  A    between atoms: _373  and  _374
REMARK  170  A    between atoms: _378  and  _380
REMARK  171  A    between atoms: _380  and  _381
REMARK  172  A    between atoms: _380  and  _383
REMARK  173  A    between atoms: _383  and  _384
REMARK  174  A    between atoms: _386  and  _388
REMARK  175  A    between atoms: _388  and  _389
REMARK  176  A    between atoms: _388  and  _391
REMARK  177  A    between atoms: _391  and  _392
REMARK  178  A    between atoms: _395  and  _397
REMARK  179  A    between atoms: _397  and  _398
REMARK  180  A    between atoms: _397  and  _400
REMARK  181  A    between atoms: _400  and  _401
REMARK  182  A    between atoms: _403  and  _405
REMARK  183  A    between atoms: _405  and  _406
REMARK  184  A    between atoms: _405  and  _408
REMARK  185  A    between atoms: _408  and  _409
REMARK  186  A    between atoms: _412  and  _414
REMARK  187  A    between atoms: _414  and  _415
REMARK  188  A    between atoms: _414  and  _417
REMARK  189  A    between atoms: _417  and  _418
REMARK  190  A    between atoms: _421  and  _423
REMARK  191  A    between atoms: _423  and  _424
REMARK  192  A    between atoms: _423  and  _426
REMARK  193  A    between atoms: _426  and  _427
REMARK  194  A    between atoms: _430  and  _432
REMARK  195  A    between atoms: _432  and  _433
REMARK  196  A    between atoms: _432  and  _435
REMARK  197  A    between atoms: _435  and  _436
REMARK  198  A    between atoms: _439  and  _441
REMARK  199  A    between atoms: _441  and  _442
REMARK  200  A    between atoms: _441  and  _444
REMARK  201  A    between atoms: _444  and  _445
REMARK  202  A    between atoms: _447  and  _449
REMARK  203  A    between atoms: _449  and  _450
REMARK  204  A    between atoms: _449  and  _452
REMARK  205  A    between atoms: _452  and  _453
REMARK  206  A    between atoms: _456  and  _458
REMARK  207  A    between atoms: _458  and  _459
REMARK  208  A    between atoms: _458  and  _461
REMARK  209  A    between atoms: _461  and  _462
REMARK  210  A    between atoms: _468  and  _470
REMARK  211  A    between atoms: _470  and  _471
REMARK  212  A    between atoms: _473  and  _475
REMARK  213  A    between atoms: _475  and  _476
REMARK  214  A    between atoms: _475  and  _478
REMARK  215  A    between atoms: _478  and  _479
REMARK  216  A    between atoms: _479  and  _480
REMARK  217  A    between atoms: _482  and  _484
REMARK  218  A    between atoms: _484  and  _485
REMARK  219  A    between atoms: _484  and  _487
REMARK  220  A    between atoms: _487  and  _488
REMARK  221  A    between atoms: _488  and  _489
REMARK  222  A    between atoms: _489  and  _490
REMARK  223  A    between atoms: _499  and  _501
REMARK  224  A    between atoms: _501  and  _502
REMARK  225  A    between atoms: _501  and  _504
REMARK  226  A    between atoms: _504  and  _505
REMARK  227  A    between atoms: _505  and  _506
REMARK  228  A    between atoms: _511  and  _513
REMARK  229  A    between atoms: _513  and  _514
REMARK  230  A    between atoms: _513  and  _516
REMARK  231  A    between atoms: _516  and  _517
REMARK  232  A    between atoms: _517  and  _518
REMARK  233  A    between atoms: _518  and  _519
REMARK                            x       y       z     vdW  Elec       q    Type
REMARK                         _______ _______ _______ _____ _____    ______ ____
ROOT
ATOM      1  O   HOH     1      41.848  29.844  12.135  0.00  0.00    +0.000 OA
ENDROOT
TORSDOF 0
REMARK  Name = ../refined-set-2016/4app/4app_pocket.pdb
REMARK  233 active torsions:
REMARK  status: ('A' for Active; 'I' for Inactive)
REMARK    1  A    between atoms: _1  and  _3
REMARK    2  A    between atoms: _3  and  _4
REMARK    3  A    between atoms: _3  and  _6
REMARK    4  A    between atoms: _6  and  _7
REMARK    5  A    between atoms: _10  and  _12
REMARK    6  A    between atoms: _12  and  _13
REMARK    7  A    between atoms: _15  and  _17
REMARK    8  A    between atoms: _17  and  _18
REMARK    9  A    between atoms: _17  and  _20
REMARK   10  A    between atoms: _20  and  _21
REMARK   11  A    between atoms: _21  and  _22
REMARK   12  A    between atoms: _25  and  _27
REMARK   13  A    between atoms: _27  and  _28
REMARK   14  A    between atoms: _30  and  _32
REMARK   15  A    between atoms: _32  and  _33
REMARK   16  A    between atoms: _32  and  _35
REMARK   17  A    between atoms: _35  and  _36
REMARK   18  A    between atoms: _38  and  _40
REMARK   19  A    between atoms: _40  and  _41
REMARK   20  A    between atoms: _40  and  _43
REMARK   21  A    between atoms: _43  and  _44
REMARK   22  A    between atoms: _47  and  _49
REMARK   23  A    between atoms: _49  and  _50
REMARK   24  A    between atoms: _52  and  _54
REMARK   25  A    between atoms: _54  and  _55
REMARK   26  A    between atoms: _54  and  _57
REMARK   27  A    between atoms: _57  and  _58
REMARK   28  A    between atoms: _61  and  _63
REMARK   29  A    between atoms: _63  and  _64
REMARK   30  A    between atoms: _63  and  _66
REMARK   31  A    between atoms: _69  and  _71
REMARK   32  A    between atoms: _71  and  _72
REMARK   33  A    between atoms: _71  and  _74
REMARK   34  A    between atoms: _76  and  _78
REMARK   35  A    between atoms: _78  and  _79
REMARK   36  A    between atoms: _78  and  _81
REMARK   37  A    between atoms: _81  and  _82
REMARK   38  A    between atoms: _85  and  _87
REMARK   39  A    between atoms: _87  and  _88
REMARK   40  A    between atoms: _87  and  _90
REMARK   41  A    between atoms: _90  and  _91
REMARK   42  A    between atoms: _94  and  _96
REMARK   43  A    between atoms: _96  and  _97
REMARK   44  A    between atoms: _96  and  _99
REMARK   45  A    between atoms: _102  and  _104
REMARK   46  A    between atoms: _104  and  _105
REMARK   47  A    between atoms: _108  and  _110
REMARK   48  A    between atoms: _110  and  _111
REMARK   49  A    between atoms: _110  and  _113
REMARK   50  A    between atoms: _116  and  _118
REMARK   51  A    between atoms: _118  and  _119
REMARK   52  A    between atoms: _118  and  _121
REMARK   53  A    between atoms: _121  and  _122
REMARK   54  A    between atoms: _122  and  _123
REMARK   55  A    between atoms: _123  and  _124
REMARK   56  A    between atoms: _124  and  _125
REMARK   57  A    between atoms: _129  and  _131
REMARK   58  A    between atoms: _131  and  _132
REMARK   59  A    between atoms: _131  and  _134
REMARK   60  A    between atoms: _134  and  _135
REMARK   61  A    between atoms: _135  and  _136
REMARK   62  A    between atoms: _136  and  _137
REMARK   63  A    between atoms: _137  and  _138
REMARK   64  A    between atoms: _142  and  _144
REMARK   65  A    between atoms: _144  and  _145
REMARK   66  A    between atoms: _144  and  _147
REMARK   67  A    between atoms: _147  and  _148
REMARK   68  A    between atoms: _148  and  _149
REMARK   69  A    between atoms: _151  and  _153
REMARK   70  A    between atoms: _153  and  _154
REMARK   71  A    between atoms: _153  and  _156
REMARK   72  A    between atoms: _156  and  _157
REMARK   73  A    between atoms: _160  and  _162
REMARK   74  A    between atoms: _162  and  _163
REMARK   75  A    between atoms: _162  and  _165
REMARK   76  A    between atoms: _165  and  _166
REMARK   77  A    between atoms: _166  and  _167
REMARK   78  A    between atoms: _172  and  _174
REMARK   79  A    between atoms: _174  and  _175
REMARK   80  A    between atoms: _174  and  _177
REMARK   81  A    between atoms: _177  and  _178
REMARK   82  A    between atoms: _178  and  _179
REMARK   83  A    between atoms: _182  and  _184
REMARK   84  A    between atoms: _184  and  _185
REMARK   85  A    between atoms: _184  and  _187
REMARK   86  A    between atoms: _190  and  _192
REMARK   87  A    between atoms: _192  and  _193
REMARK   88  A    between atoms: _192  and  _195
REMARK   89  A    between atoms: _195  and  _196
REMARK   90  A    between atoms: _196  and  _197
REMARK   91  A    between atoms: _200  and  _202
REMARK   92  A    between atoms: _202  and  _203
REMARK   93  A    between atoms: _202  and  _205
REMARK   94  A    between atoms: _205  and  _206
REMARK   95  A    between atoms: _206  and  _207
REMARK   96  A    between atoms: _209  and  _211
REMARK   97  A    between atoms: _211  and  _212
REMARK   98  A    between atoms: _211  and  _214
REMARK   99  A    between atoms: _214  and  _215
REMARK  100  A    between atoms: _218  and  _220
REMARK  101  A    between atoms: _220  and  _221
REMARK  102  A    between atoms: _220  and  _223
REMARK  103  A    between atoms: _226  and  _228
REMARK  104  A    between atoms: _228  and  _229
REMARK  105  A    between atoms: _228  and  _231
REMARK  106  A    between atoms: _234  and  _236
REMARK  107  A    between atoms: _236  and  _237
REMARK  108  A    between atoms: _236  and  _239
REMARK  109  A    between atoms: _239  and  _240
REMARK  110  A    between atoms: _240  and  _241
REMARK  111  A    between atoms: _243  and  _245
REMARK  112  A    between atoms: _245  and  _246
REMARK  113  A    between atoms: _245  and  _248
REMARK  114  A    between atoms: _248  and  _249
REMARK  115  A    between atoms: _249  and  _250
REMARK  116  A    between atoms: _253  and  _255
REMARK  117  A    between atoms: _255  and  _256
REMARK  118  A    between atoms: _255  and  _258
REMARK  119  A    between atoms: _258  and  _259
REMARK  120  A    between atoms: _265  and  _267
REMARK  121  A    between atoms: _267  and  _268
REMARK  122  A    between atoms: _267  and  _270
REMARK  123  A    between atoms: _270  and  _271
REMARK  124  A    between atoms: _274  and  _276
REMARK  125  A    between atoms: _276  and  _277
REMARK  126  A    between atoms: _276  and  _279
REMARK  127  A    between atoms: _279  and  _280
REMARK  128  A    between atoms: _280  and  _281
REMARK  129  A    between atoms: _284  and  _286
REMARK  130  A    between atoms: _286  and  _287
REMARK  131  A    between atoms: _289  and  _291
REMARK  132  A    between atoms: _291  and  _292
REMARK  133  A    between atoms: _294  and  _296
REMARK  134  A    between atoms: _296  and  _297
REMARK  135  A    between atoms: _300  and  _302
REMARK  136  A    between atoms: _302  and  _303
REMARK  137  A    between atoms: _302  and  _305
REMARK  138  A    between atoms: _305  and  _306
REMARK  139  A    between atoms: _309  and  _311
REMARK  140  A    between atoms: _311  and  _312
REMARK  141  A    between atoms: _311  and  _314
REMARK  142  A    between atoms: _314  and  _315
REMARK  143  A    between atoms: _318  and  _320
REMARK  144  A    between atoms: _320  and  _321
REMARK  145  A    between atoms: _320  and  _323
REMARK  146  A    between atoms: _323  and  _324
REMARK  147  A    between atoms: _327  and  _329
REMARK  148  A    between atoms: _329  and  _330
REMARK  149  A    between atoms: _329  and  _332
REMARK  150  A    between atoms: _332  and  _333
REMARK  151  A    between atoms: _336  and  _338
REMARK  152  A    between atoms: _338  and  _339
REMARK  153  A    between atoms: _338  and  _341
REMARK  154  A    between atoms: _341  and  _342
REMARK  155  A    between atoms: _345  and  _347
REMARK  156  A    between atoms: _347  and  _348
REMARK  157  A    between atoms: _347  and  _350
REMARK  158  A    between atoms: _350  and  _351
REMARK  159  A    between atoms: _356  and  _358
REMARK  160  A    between atoms: _358  and  _359
REMARK  161  A    between atoms: _358  and  _361
REMARK  162  A    between atoms: _361  and  _362
REMARK  163  A    between atoms: _365  and  _367
REMARK  164  A    between atoms: _367  and  _368
REMARK  165  A    between atoms: _367  and  _370
REMARK  166  A    between atoms: _370  and  _371
REMARK  167  A    between atoms: _371  and  _372
REMARK  168  A    between atoms: _372  and  _373
REMARK  169  A    between atoms: _373  and  _374
REMARK  170  A    between atoms: _378  and  _380
REMARK  171  A    between atoms: _380  and  _381
REMARK  172  A    between atoms: _380  and  _383
REMARK  173  A    between atoms: _383  and  _384
REMARK  174  A    between atoms: _386  and  _388
REMARK  175  A    between atoms: _388  and  _389
REMARK  176  A    between atoms: _388  and  _391
REMARK  177  A    between atoms: _391  and  _392
REMARK  178  A    between atoms: _395  and  _397
REMARK  179  A    between atoms: _397  and  _398
REMARK  180  A    between atoms: _397  and  _400
REMARK  181  A    between atoms: _400  and  _401
REMARK  182  A    between atoms: _403  and  _405
REMARK  183  A    between atoms: _405  and  _406
REMARK  184  A    between atoms: _405  and  _408
REMARK  185  A    between atoms: _408  and  _409
REMARK  186  A    between atoms: _412  and  _414
REMARK  187  A    between atoms: _414  and  _415
REMARK  188  A    between atoms: _414  and  _417
REMARK  189  A    between atoms: _417  and  _418
REMARK  190  A    between atoms: _421  and  _423
REMARK  191  A    between atoms: _423  and  _424
REMARK  192  A    between atoms: _423  and  _426
REMARK  193  A    between atoms: _426  and  _427
REMARK  194  A    between atoms: _430  and  _432
REMARK  195  A    between atoms: _432  and  _433
REMARK  196  A    between atoms: _432  and  _435
REMARK  197  A    between atoms: _435  and  _436
REMARK  198  A    between atoms: _439  and  _441
REMARK  199  A    between atoms: _441  and  _442
REMARK  200  A    between atoms: _441  and  _444
REMARK  201  A    between atoms: _444  and  _445
REMARK  202  A    between atoms: _447  and  _449
REMARK  203  A    between atoms: _449  and  _450
REMARK  204  A    between atoms: _449  and  _452
REMARK  205  A    between atoms: _452  and  _453
REMARK  206  A    between atoms: _456  and  _458
REMARK  207  A    between atoms: _458  and  _459
REMARK  208  A    between atoms: _458  and  _461
REMARK  209  A    between atoms: _461  and  _462
REMARK  210  A    between atoms: _468  and  _470
REMARK  211  A    between atoms: _470  and  _471
REMARK  212  A    between atoms: _473  and  _475
REMARK  213  A    between atoms: _475  and  _476
REMARK  214  A    between atoms: _475  and  _478
REMARK  215  A    between atoms: _478  and  _479
REMARK  216  A    between atoms: _479  and  _480
REMARK  217  A    between atoms: _482  and  _484
REMARK  218  A    between atoms: _484  and  _485
REMARK  219  A    between atoms: _484  and  _487
REMARK  220  A    between atoms: _487  and  _488
REMARK  221  A    between atoms: _488  and  _489
REMARK  222  A    between atoms: _489  and  _490
REMARK  223  A    between atoms: _499  and  _501
REMARK  224  A    between atoms: _501  and  _502
REMARK  225  A    between atoms: _501  and  _504
REMARK  226  A    between atoms: _504  and  _505
REMARK  227  A    between atoms: _505  and  _506
REMARK  228  A    between atoms: _511  and  _513
REMARK  229  A    between atoms: _513  and  _514
REMARK  230  A    between atoms: _513  and  _516
REMARK  231  A    between atoms: _516  and  _517
REMARK  232  A    between atoms: _517  and  _518
REMARK  233  A    between atoms: _518  and  _519
REMARK                            x       y       z     vdW  Elec       q    Type
REMARK                         _______ _______ _______ _____ _____    ______ ____
ROOT
ATOM      1  O   HOH     1      40.632  22.613   6.673  0.00  0.00    +0.000 OA
ENDROOT
TORSDOF 0
REMARK  Name = ../refined-set-2016/4app/4app_pocket.pdb
REMARK  233 active torsions:
REMARK  status: ('A' for Active; 'I' for Inactive)
REMARK    1  A    between atoms: _1  and  _3
REMARK    2  A    between atoms: _3  and  _4
REMARK    3  A    between atoms: _3  and  _6
REMARK    4  A    between atoms: _6  and  _7
REMARK    5  A    between atoms: _10  and  _12
REMARK    6  A    between atoms: _12  and  _13
REMARK    7  A    between atoms: _15  and  _17
REMARK    8  A    between atoms: _17  and  _18
REMARK    9  A    between atoms: _17  and  _20
REMARK   10  A    between atoms: _20  and  _21
REMARK   11  A    between atoms: _21  and  _22
REMARK   12  A    between atoms: _25  and  _27
REMARK   13  A    between atoms: _27  and  _28
REMARK   14  A    between atoms: _30  and  _32
REMARK   15  A    between atoms: _32  and  _33
REMARK   16  A    between atoms: _32  and  _35
REMARK   17  A    between atoms: _35  and  _36
REMARK   18  A    between atoms: _38  and  _40
REMARK   19  A    between atoms: _40  and  _41
REMARK   20  A    between atoms: _40  and  _43
REMARK   21  A    between atoms: _43  and  _44
REMARK   22  A    between atoms: _47  and  _49
REMARK   23  A    between atoms: _49  and  _50
REMARK   24  A    between atoms: _52  and  _54
REMARK   25  A    between atoms: _54  and  _55
REMARK   26  A    between atoms: _54  and  _57
REMARK   27  A    between atoms: _57  and  _58
REMARK   28  A    between atoms: _61  and  _63
REMARK   29  A    between atoms: _63  and  _64
REMARK   30  A    between atoms: _63  and  _66
REMARK   31  A    between atoms: _69  and  _71
REMARK   32  A    between atoms: _71  and  _72
REMARK   33  A    between atoms: _71  and  _74
REMARK   34  A    between atoms: _76  and  _78
REMARK   35  A    between atoms: _78  and  _79
REMARK   36  A    between atoms: _78  and  _81
REMARK   37  A    between atoms: _81  and  _82
REMARK   38  A    between atoms: _85  and  _87
REMARK   39  A    between atoms: _87  and  _88
REMARK   40  A    between atoms: _87  and  _90
REMARK   41  A    between atoms: _90  and  _91
REMARK   42  A    between atoms: _94  and  _96
REMARK   43  A    between atoms: _96  and  _97
REMARK   44  A    between atoms: _96  and  _99
REMARK   45  A    between atoms: _102  and  _104
REMARK   46  A    between atoms: _104  and  _105
REMARK   47  A    between atoms: _108  and  _110
REMARK   48  A    between atoms: _110  and  _111
REMARK   49  A    between atoms: _110  and  _113
REMARK   50  A    between atoms: _116  and  _118
REMARK   51  A    between atoms: _118  and  _119
REMARK   52  A    between atoms: _118  and  _121
REMARK   53  A    between atoms: _121  and  _122
REMARK   54  A    between atoms: _122  and  _123
REMARK   55  A    between atoms: _123  and  _124
REMARK   56  A    between atoms: _124  and  _125
REMARK   57  A    between atoms: _129  and  _131
REMARK   58  A    between atoms: _131  and  _132
REMARK   59  A    between atoms: _131  and  _134
REMARK   60  A    between atoms: _134  and  _135
REMARK   61  A    between atoms: _135  and  _136
REMARK   62  A    between atoms: _136  and  _137
REMARK   63  A    between atoms: _137  and  _138
REMARK   64  A    between atoms: _142  and  _144
REMARK   65  A    between atoms: _144  and  _145
REMARK   66  A    between atoms: _144  and  _147
REMARK   67  A    between atoms: _147  and  _148
REMARK   68  A    between atoms: _148  and  _149
REMARK   69  A    between atoms: _151  and  _153
REMARK   70  A    between atoms: _153  and  _154
REMARK   71  A    between atoms: _153  and  _156
REMARK   72  A    between atoms: _156  and  _157
REMARK   73  A    between atoms: _160  and  _162
REMARK   74  A    between atoms: _162  and  _163
REMARK   75  A    between atoms: _162  and  _165
REMARK   76  A    between atoms: _165  and  _166
REMARK   77  A    between atoms: _166  and  _167
REMARK   78  A    between atoms: _172  and  _174
REMARK   79  A    between atoms: _174  and  _175
REMARK   80  A    between atoms: _174  and  _177
REMARK   81  A    between atoms: _177  and  _178
REMARK   82  A    between atoms: _178  and  _179
REMARK   83  A    between atoms: _182  and  _184
REMARK   84  A    between atoms: _184  and  _185
REMARK   85  A    between atoms: _184  and  _187
REMARK   86  A    between atoms: _190  and  _192
REMARK   87  A    between atoms: _192  and  _193
REMARK   88  A    between atoms: _192  and  _195
REMARK   89  A    between atoms: _195  and  _196
REMARK   90  A    between atoms: _196  and  _197
REMARK   91  A    between atoms: _200  and  _202
REMARK   92  A    between atoms: _202  and  _203
REMARK   93  A    between atoms: _202  and  _205
REMARK   94  A    between atoms: _205  and  _206
REMARK   95  A    between atoms: _206  and  _207
REMARK   96  A    between atoms: _209  and  _211
REMARK   97  A    between atoms: _211  and  _212
REMARK   98  A    between atoms: _211  and  _214
REMARK   99  A    between atoms: _214  and  _215
REMARK  100  A    between atoms: _218  and  _220
REMARK  101  A    between atoms: _220  and  _221
REMARK  102  A    between atoms: _220  and  _223
REMARK  103  A    between atoms: _226  and  _228
REMARK  104  A    between atoms: _228  and  _229
REMARK  105  A    between atoms: _228  and  _231
REMARK  106  A    between atoms: _234  and  _236
REMARK  107  A    between atoms: _236  and  _237
REMARK  108  A    between atoms: _236  and  _239
REMARK  109  A    between atoms: _239  and  _240
REMARK  110  A    between atoms: _240  and  _241
REMARK  111  A    between atoms: _243  and  _245
REMARK  112  A    between atoms: _245  and  _246
REMARK  113  A    between atoms: _245  and  _248
REMARK  114  A    between atoms: _248  and  _249
REMARK  115  A    between atoms: _249  and  _250
REMARK  116  A    between atoms: _253  and  _255
REMARK  117  A    between atoms: _255  and  _256
REMARK  118  A    between atoms: _255  and  _258
REMARK  119  A    between atoms: _258  and  _259
REMARK  120  A    between atoms: _265  and  _267
REMARK  121  A    between atoms: _267  and  _268
REMARK  122  A    between atoms: _267  and  _270
REMARK  123  A    between atoms: _270  and  _271
REMARK  124  A    between atoms: _274  and  _276
REMARK  125  A    between atoms: _276  and  _277
REMARK  126  A    between atoms: _276  and  _279
REMARK  127  A    between atoms: _279  and  _280
REMARK  128  A    between atoms: _280  and  _281
REMARK  129  A    between atoms: _284  and  _286
REMARK  130  A    between atoms: _286  and  _287
REMARK  131  A    between atoms: _289  and  _291
REMARK  132  A    between atoms: _291  and  _292
REMARK  133  A    between atoms: _294  and  _296
REMARK  134  A    between atoms: _296  and  _297
REMARK  135  A    between atoms: _300  and  _302
REMARK  136  A    between atoms: _302  and  _303
REMARK  137  A    between atoms: _302  and  _305
REMARK  138  A    between atoms: _305  and  _306
REMARK  139  A    between atoms: _309  and  _311
REMARK  140  A    between atoms: _311  and  _312
REMARK  141  A    between atoms: _311  and  _314
REMARK  142  A    between atoms: _314  and  _315
REMARK  143  A    between atoms: _318  and  _320
REMARK  144  A    between atoms: _320  and  _321
REMARK  145  A    between atoms: _320  and  _323
REMARK  146  A    between atoms: _323  and  _324
REMARK  147  A    between atoms: _327  and  _329
REMARK  148  A    between atoms: _329  and  _330
REMARK  149  A    between atoms: _329  and  _332
REMARK  150  A    between atoms: _332  and  _333
REMARK  151  A    between atoms: _336  and  _338
REMARK  152  A    between atoms: _338  and  _339
REMARK  153  A    between atoms: _338  and  _341
REMARK  154  A    between atoms: _341  and  _342
REMARK  155  A    between atoms: _345  and  _347
REMARK  156  A    between atoms: _347  and  _348
REMARK  157  A    between atoms: _347  and  _350
REMARK  158  A    between atoms: _350  and  _351
REMARK  159  A    between atoms: _356  and  _358
REMARK  160  A    between atoms: _358  and  _359
REMARK  161  A    between atoms: _358  and  _361
REMARK  162  A    between atoms: _361  and  _362
REMARK  163  A    between atoms: _365  and  _367
REMARK  164  A    between atoms: _367  and  _368
REMARK  165  A    between atoms: _367  and  _370
REMARK  166  A    between atoms: _370  and  _371
REMARK  167  A    between atoms: _371  and  _372
REMARK  168  A    between atoms: _372  and  _373
REMARK  169  A    between atoms: _373  and  _374
REMARK  170  A    between atoms: _378  and  _380
REMARK  171  A    between atoms: _380  and  _381
REMARK  172  A    between atoms: _380  and  _383
REMARK  173  A    between atoms: _383  and  _384
REMARK  174  A    between atoms: _386  and  _388
REMARK  175  A    between atoms: _388  and  _389
REMARK  176  A    between atoms: _388  and  _391
REMARK  177  A    between atoms: _391  and  _392
REMARK  178  A    between atoms: _395  and  _397
REMARK  179  A    between atoms: _397  and  _398
REMARK  180  A    between atoms: _397  and  _400
REMARK  181  A    between atoms: _400  and  _401
REMARK  182  A    between atoms: _403  and  _405
REMARK  183  A    between atoms: _405  and  _406
REMARK  184  A    between atoms: _405  and  _408
REMARK  185  A    between atoms: _408  and  _409
REMARK  186  A    between atoms: _412  and  _414
REMARK  187  A    between atoms: _414  and  _415
REMARK  188  A    between atoms: _414  and  _417
REMARK  189  A    between atoms: _417  and  _418
REMARK  190  A    between atoms: _421  and  _423
REMARK  191  A    between atoms: _423  and  _424
REMARK  192  A    between atoms: _423  and  _426
REMARK  193  A    between atoms: _426  and  _427
REMARK  194  A    between atoms: _430  and  _432
REMARK  195  A    between atoms: _432  and  _433
REMARK  196  A    between atoms: _432  and  _435
REMARK  197  A    between atoms: _435  and  _436
REMARK  198  A    between atoms: _439  and  _441
REMARK  199  A    between atoms: _441  and  _442
REMARK  200  A    between atoms: _441  and  _444
REMARK  201  A    between atoms: _444  and  _445
REMARK  202  A    between atoms: _447  and  _449
REMARK  203  A    between atoms: _449  and  _450
REMARK  204  A    between atoms: _449  and  _452
REMARK  205  A    between atoms: _452  and  _453
REMARK  206  A    between atoms: _456  and  _458
REMARK  207  A    between atoms: _458  and  _459
REMARK  208  A    between atoms: _458  and  _461
REMARK  209  A    between atoms: _461  and  _462
REMARK  210  A    between atoms: _468  and  _470
REMARK  211  A    between atoms: _470  and  _471
REMARK  212  A    between atoms: _473  and  _475
REMARK  213  A    between atoms: _475  and  _476
REMARK  214  A    between atoms: _475  and  _478
REMARK  215  A    between atoms: _478  and  _479
REMARK  216  A    between atoms: _479  and  _480
REMARK  217  A    between atoms: _482  and  _484
REMARK  218  A    between atoms: _484  and  _485
REMARK  219  A    between atoms: _484  and  _487
REMARK  220  A    between atoms: _487  and  _488
REMARK  221  A    between atoms: _488  and  _489
REMARK  222  A    between atoms: _489  and  _490
REMARK  223  A    between atoms: _499  and  _501
REMARK  224  A    between atoms: _501  and  _502
REMARK  225  A    between atoms: _501  and  _504
REMARK  226  A    between atoms: _504  and  _505
REMARK  227  A    between atoms: _505  and  _506
REMARK  228  A    between atoms: _511  and  _513
REMARK  229  A    between atoms: _513  and  _514
REMARK  230  A    between atoms: _513  and  _516
REMARK  231  A    between atoms: _516  and  _517
REMARK  232  A    between atoms: _517  and  _518
REMARK  233  A    between atoms: _518  and  _519
REMARK                            x       y       z     vdW  Elec       q    Type
REMARK                         _______ _______ _______ _____ _____    ______ ____
ROOT
ATOM      1  O   HOH     1      43.176  25.321   5.557  0.00  0.00    +0.000 OA
ENDROOT
TORSDOF 0
REMARK  Name = ../refined-set-2016/4app/4app_pocket.pdb
REMARK  233 active torsions:
REMARK  status: ('A' for Active; 'I' for Inactive)
REMARK    1  A    between atoms: _1  and  _3
REMARK    2  A    between atoms: _3  and  _4
REMARK    3  A    between atoms: _3  and  _6
REMARK    4  A    between atoms: _6  and  _7
REMARK    5  A    between atoms: _10  and  _12
REMARK    6  A    between atoms: _12  and  _13
REMARK    7  A    between atoms: _15  and  _17
REMARK    8  A    between atoms: _17  and  _18
REMARK    9  A    between atoms: _17  and  _20
REMARK   10  A    between atoms: _20  and  _21
REMARK   11  A    between atoms: _21  and  _22
REMARK   12  A    between atoms: _25  and  _27
REMARK   13  A    between atoms: _27  and  _28
REMARK   14  A    between atoms: _30  and  _32
REMARK   15  A    between atoms: _32  and  _33
REMARK   16  A    between atoms: _32  and  _35
REMARK   17  A    between atoms: _35  and  _36
REMARK   18  A    between atoms: _38  and  _40
REMARK   19  A    between atoms: _40  and  _41
REMARK   20  A    between atoms: _40  and  _43
REMARK   21  A    between atoms: _43  and  _44
REMARK   22  A    between atoms: _47  and  _49
REMARK   23  A    between atoms: _49  and  _50
REMARK   24  A    between atoms: _52  and  _54
REMARK   25  A    between atoms: _54  and  _55
REMARK   26  A    between atoms: _54  and  _57
REMARK   27  A    between atoms: _57  and  _58
REMARK   28  A    between atoms: _61  and  _63
REMARK   29  A    between atoms: _63  and  _64
REMARK   30  A    between atoms: _63  and  _66
REMARK   31  A    between atoms: _69  and  _71
REMARK   32  A    between atoms: _71  and  _72
REMARK   33  A    between atoms: _71  and  _74
REMARK   34  A    between atoms: _76  and  _78
REMARK   35  A    between atoms: _78  and  _79
REMARK   36  A    between atoms: _78  and  _81
REMARK   37  A    between atoms: _81  and  _82
REMARK   38  A    between atoms: _85  and  _87
REMARK   39  A    between atoms: _87  and  _88
REMARK   40  A    between atoms: _87  and  _90
REMARK   41  A    between atoms: _90  and  _91
REMARK   42  A    between atoms: _94  and  _96
REMARK   43  A    between atoms: _96  and  _97
REMARK   44  A    between atoms: _96  and  _99
REMARK   45  A    between atoms: _102  and  _104
REMARK   46  A    between atoms: _104  and  _105
REMARK   47  A    between atoms: _108  and  _110
REMARK   48  A    between atoms: _110  and  _111
REMARK   49  A    between atoms: _110  and  _113
REMARK   50  A    between atoms: _116  and  _118
REMARK   51  A    between atoms: _118  and  _119
REMARK   52  A    between atoms: _118  and  _121
REMARK   53  A    between atoms: _121  and  _122
REMARK   54  A    between atoms: _122  and  _123
REMARK   55  A    between atoms: _123  and  _124
REMARK   56  A    between atoms: _124  and  _125
REMARK   57  A    between atoms: _129  and  _131
REMARK   58  A    between atoms: _131  and  _132
REMARK   59  A    between atoms: _131  and  _134
REMARK   60  A    between atoms: _134  and  _135
REMARK   61  A    between atoms: _135  and  _136
REMARK   62  A    between atoms: _136  and  _137
REMARK   63  A    between atoms: _137  and  _138
REMARK   64  A    between atoms: _142  and  _144
REMARK   65  A    between atoms: _144  and  _145
REMARK   66  A    between atoms: _144  and  _147
REMARK   67  A    between atoms: _147  and  _148
REMARK   68  A    between atoms: _148  and  _149
REMARK   69  A    between atoms: _151  and  _153
REMARK   70  A    between atoms: _153  and  _154
REMARK   71  A    between atoms: _153  and  _156
REMARK   72  A    between atoms: _156  and  _157
REMARK   73  A    between atoms: _160  and  _162
REMARK   74  A    between atoms: _162  and  _163
REMARK   75  A    between atoms: _162  and  _165
REMARK   76  A    between atoms: _165  and  _166
REMARK   77  A    between atoms: _166  and  _167
REMARK   78  A    between atoms: _172  and  _174
REMARK   79  A    between atoms: _174  and  _175
REMARK   80  A    between atoms: _174  and  _177
REMARK   81  A    between atoms: _177  and  _178
REMARK   82  A    between atoms: _178  and  _179
REMARK   83  A    between atoms: _182  and  _184
REMARK   84  A    between atoms: _184  and  _185
REMARK   85  A    between atoms: _184  and  _187
REMARK   86  A    between atoms: _190  and  _192
REMARK   87  A    between atoms: _192  and  _193
REMARK   88  A    between atoms: _192  and  _195
REMARK   89  A    between atoms: _195  and  _196
REMARK   90  A    between atoms: _196  and  _197
REMARK   91  A    between atoms: _200  and  _202
REMARK   92  A    between atoms: _202  and  _203
REMARK   93  A    between atoms: _202  and  _205
REMARK   94  A    between atoms: _205  and  _206
REMARK   95  A    between atoms: _206  and  _207
REMARK   96  A    between atoms: _209  and  _211
REMARK   97  A    between atoms: _211  and  _212
REMARK   98  A    between atoms: _211  and  _214
REMARK   99  A    between atoms: _214  and  _215
REMARK  100  A    between atoms: _218  and  _220
REMARK  101  A    between atoms: _220  and  _221
REMARK  102  A    between atoms: _220  and  _223
REMARK  103  A    between atoms: _226  and  _228
REMARK  104  A    between atoms: _228  and  _229
REMARK  105  A    between atoms: _228  and  _231
REMARK  106  A    between atoms: _234  and  _236
REMARK  107  A    between atoms: _236  and  _237
REMARK  108  A    between atoms: _236  and  _239
REMARK  109  A    between atoms: _239  and  _240
REMARK  110  A    between atoms: _240  and  _241
REMARK  111  A    between atoms: _243  and  _245
REMARK  112  A    between atoms: _245  and  _246
REMARK  113  A    between atoms: _245  and  _248
REMARK  114  A    between atoms: _248  and  _249
REMARK  115  A    between atoms: _249  and  _250
REMARK  116  A    between atoms: _253  and  _255
REMARK  117  A    between atoms: _255  and  _256
REMARK  118  A    between atoms: _255  and  _258
REMARK  119  A    between atoms: _258  and  _259
REMARK  120  A    between atoms: _265  and  _267
REMARK  121  A    between atoms: _267  and  _268
REMARK  122  A    between atoms: _267  and  _270
REMARK  123  A    between atoms: _270  and  _271
REMARK  124  A    between atoms: _274  and  _276
REMARK  125  A    between atoms: _276  and  _277
REMARK  126  A    between atoms: _276  and  _279
REMARK  127  A    between atoms: _279  and  _280
REMARK  128  A    between atoms: _280  and  _281
REMARK  129  A    between atoms: _284  and  _286
REMARK  130  A    between atoms: _286  and  _287
REMARK  131  A    between atoms: _289  and  _291
REMARK  132  A    between atoms: _291  and  _292
REMARK  133  A    between atoms: _294  and  _296
REMARK  134  A    between atoms: _296  and  _297
REMARK  135  A    between atoms: _300  and  _302
REMARK  136  A    between atoms: _302  and  _303
REMARK  137  A    between atoms: _302  and  _305
REMARK  138  A    between atoms: _305  and  _306
REMARK  139  A    between atoms: _309  and  _311
REMARK  140  A    between atoms: _311  and  _312
REMARK  141  A    between atoms: _311  and  _314
REMARK  142  A    between atoms: _314  and  _315
REMARK  143  A    between atoms: _318  and  _320
REMARK  144  A    between atoms: _320  and  _321
REMARK  145  A    between atoms: _320  and  _323
REMARK  146  A    between atoms: _323  and  _324
REMARK  147  A    between atoms: _327  and  _329
REMARK  148  A    between atoms: _329  and  _330
REMARK  149  A    between atoms: _329  and  _332
REMARK  150  A    between atoms: _332  and  _333
REMARK  151  A    between atoms: _336  and  _338
REMARK  152  A    between atoms: _338  and  _339
REMARK  153  A    between atoms: _338  and  _341
REMARK  154  A    between atoms: _341  and  _342
REMARK  155  A    between atoms: _345  and  _347
REMARK  156  A    between atoms: _347  and  _348
REMARK  157  A    between atoms: _347  and  _350
REMARK  158  A    between atoms: _350  and  _351
REMARK  159  A    between atoms: _356  and  _358
REMARK  160  A    between atoms: _358  and  _359
REMARK  161  A    between atoms: _358  and  _361
REMARK  162  A    between atoms: _361  and  _362
REMARK  163  A    between atoms: _365  and  _367
REMARK  164  A    between atoms: _367  and  _368
REMARK  165  A    between atoms: _367  and  _370
REMARK  166  A    between atoms: _370  and  _371
REMARK  167  A    between atoms: _371  and  _372
REMARK  168  A    between atoms: _372  and  _373
REMARK  169  A    between atoms: _373  and  _374
REMARK  170  A    between atoms: _378  and  _380
REMARK  171  A    between atoms: _380  and  _381
REMARK  172  A    between atoms: _380  and  _383
REMARK  173  A    between atoms: _383  and  _384
REMARK  174  A    between atoms: _386  and  _388
REMARK  175  A    between atoms: _388  and  _389
REMARK  176  A    between atoms: _388  and  _391
REMARK  177  A    between atoms: _391  and  _392
REMARK  178  A    between atoms: _395  and  _397
REMARK  179  A    between atoms: _397  and  _398
REMARK  180  A    between atoms: _397  and  _400
REMARK  181  A    between atoms: _400  and  _401
REMARK  182  A    between atoms: _403  and  _405
REMARK  183  A    between atoms: _405  and  _406
REMARK  184  A    between atoms: _405  and  _408
REMARK  185  A    between atoms: _408  and  _409
REMARK  186  A    between atoms: _412  and  _414
REMARK  187  A    between atoms: _414  and  _415
REMARK  188  A    between atoms: _414  and  _417
REMARK  189  A    between atoms: _417  and  _418
REMARK  190  A    between atoms: _421  and  _423
REMARK  191  A    between atoms: _423  and  _424
REMARK  192  A    between atoms: _423  and  _426
REMARK  193  A    between atoms: _426  and  _427
REMARK  194  A    between atoms: _430  and  _432
REMARK  195  A    between atoms: _432  and  _433
REMARK  196  A    between atoms: _432  and  _435
REMARK  197  A    between atoms: _435  and  _436
REMARK  198  A    between atoms: _439  and  _441
REMARK  199  A    between atoms: _441  and  _442
REMARK  200  A    between atoms: _441  and  _444
REMARK  201  A    between atoms: _444  and  _445
REMARK  202  A    between atoms: _447  and  _449
REMARK  203  A    between atoms: _449  and  _450
REMARK  204  A    between atoms: _449  and  _452
REMARK  205  A    between atoms: _452  and  _453
REMARK  206  A    between atoms: _456  and  _458
REMARK  207  A    between atoms: _458  and  _459
REMARK  208  A    between atoms: _458  and  _461
REMARK  209  A    between atoms: _461  and  _462
REMARK  210  A    between atoms: _468  and  _470
REMARK  211  A    between atoms: _470  and  _471
REMARK  212  A    between atoms: _473  and  _475
REMARK  213  A    between atoms: _475  and  _476
REMARK  214  A    between atoms: _475  and  _478
REMARK  215  A    between atoms: _478  and  _479
REMARK  216  A    between atoms: _479  and  _480
REMARK  217  A    between atoms: _482  and  _484
REMARK  218  A    between atoms: _484  and  _485
REMARK  219  A    between atoms: _484  and  _487
REMARK  220  A    between atoms: _487  and  _488
REMARK  221  A    between atoms: _488  and  _489
REMARK  222  A    between atoms: _489  and  _490
REMARK  223  A    between atoms: _499  and  _501
REMARK  224  A    between atoms: _501  and  _502
REMARK  225  A    between atoms: _501  and  _504
REMARK  226  A    between atoms: _504  and  _505
REMARK  227  A    between atoms: _505  and  _506
REMARK  228  A    between atoms: _511  and  _513
REMARK  229  A    between atoms: _513  and  _514
REMARK  230  A    between atoms: _513  and  _516
REMARK  231  A    between atoms: _516  and  _517
REMARK  232  A    between atoms: _517  and  _518
REMARK  233  A    between atoms: _518  and  _519
REMARK                            x       y       z     vdW  Elec       q    Type
REMARK                         _______ _______ _______ _____ _____    ______ ____
ROOT
ATOM      1  O   HOH     1      42.584  28.101  19.520  0.00  0.00    +0.000 OA
ENDROOT
TORSDOF 0
REMARK  Name = ../refined-set-2016/4app/4app_pocket.pdb
REMARK  233 active torsions:
REMARK  status: ('A' for Active; 'I' for Inactive)
REMARK    1  A    between atoms: _1  and  _3
REMARK    2  A    between atoms: _3  and  _4
REMARK    3  A    between atoms: _3  and  _6
REMARK    4  A    between atoms: _6  and  _7
REMARK    5  A    between atoms: _10  and  _12
REMARK    6  A    between atoms: _12  and  _13
REMARK    7  A    between atoms: _15  and  _17
REMARK    8  A    between atoms: _17  and  _18
REMARK    9  A    between atoms: _17  and  _20
REMARK   10  A    between atoms: _20  and  _21
REMARK   11  A    between atoms: _21  and  _22
REMARK   12  A    between atoms: _25  and  _27
REMARK   13  A    between atoms: _27  and  _28
REMARK   14  A    between atoms: _30  and  _32
REMARK   15  A    between atoms: _32  and  _33
REMARK   16  A    between atoms: _32  and  _35
REMARK   17  A    between atoms: _35  and  _36
REMARK   18  A    between atoms: _38  and  _40
REMARK   19  A    between atoms: _40  and  _41
REMARK   20  A    between atoms: _40  and  _43
REMARK   21  A    between atoms: _43  and  _44
REMARK   22  A    between atoms: _47  and  _49
REMARK   23  A    between atoms: _49  and  _50
REMARK   24  A    between atoms: _52  and  _54
REMARK   25  A    between atoms: _54  and  _55
REMARK   26  A    between atoms: _54  and  _57
REMARK   27  A    between atoms: _57  and  _58
REMARK   28  A    between atoms: _61  and  _63
REMARK   29  A    between atoms: _63  and  _64
REMARK   30  A    between atoms: _63  and  _66
REMARK   31  A    between atoms: _69  and  _71
REMARK   32  A    between atoms: _71  and  _72
REMARK   33  A    between atoms: _71  and  _74
REMARK   34  A    between atoms: _76  and  _78
REMARK   35  A    between atoms: _78  and  _79
REMARK   36  A    between atoms: _78  and  _81
REMARK   37  A    between atoms: _81  and  _82
REMARK   38  A    between atoms: _85  and  _87
REMARK   39  A    between atoms: _87  and  _88
REMARK   40  A    between atoms: _87  and  _90
REMARK   41  A    between atoms: _90  and  _91
REMARK   42  A    between atoms: _94  and  _96
REMARK   43  A    between atoms: _96  and  _97
REMARK   44  A    between atoms: _96  and  _99
REMARK   45  A    between atoms: _102  and  _104
REMARK   46  A    between atoms: _104  and  _105
REMARK   47  A    between atoms: _108  and  _110
REMARK   48  A    between atoms: _110  and  _111
REMARK   49  A    between atoms: _110  and  _113
REMARK   50  A    between atoms: _116  and  _118
REMARK   51  A    between atoms: _118  and  _119
REMARK   52  A    between atoms: _118  and  _121
REMARK   53  A    between atoms: _121  and  _122
REMARK   54  A    between atoms: _122  and  _123
REMARK   55  A    between atoms: _123  and  _124
REMARK   56  A    between atoms: _124  and  _125
REMARK   57  A    between atoms: _129  and  _131
REMARK   58  A    between atoms: _131  and  _132
REMARK   59  A    between atoms: _131  and  _134
REMARK   60  A    between atoms: _134  and  _135
REMARK   61  A    between atoms: _135  and  _136
REMARK   62  A    between atoms: _136  and  _137
REMARK   63  A    between atoms: _137  and  _138
REMARK   64  A    between atoms: _142  and  _144
REMARK   65  A    between atoms: _144  and  _145
REMARK   66  A    between atoms: _144  and  _147
REMARK   67  A    between atoms: _147  and  _148
REMARK   68  A    between atoms: _148  and  _149
REMARK   69  A    between atoms: _151  and  _153
REMARK   70  A    between atoms: _153  and  _154
REMARK   71  A    between atoms: _153  and  _156
REMARK   72  A    between atoms: _156  and  _157
REMARK   73  A    between atoms: _160  and  _162
REMARK   74  A    between atoms: _162  and  _163
REMARK   75  A    between atoms: _162  and  _165
REMARK   76  A    between atoms: _165  and  _166
REMARK   77  A    between atoms: _166  and  _167
REMARK   78  A    between atoms: _172  and  _174
REMARK   79  A    between atoms: _174  and  _175
REMARK   80  A    between atoms: _174  and  _177
REMARK   81  A    between atoms: _177  and  _178
REMARK   82  A    between atoms: _178  and  _179
REMARK   83  A    between atoms: _182  and  _184
REMARK   84  A    between atoms: _184  and  _185
REMARK   85  A    between atoms: _184  and  _187
REMARK   86  A    between atoms: _190  and  _192
REMARK   87  A    between atoms: _192  and  _193
REMARK   88  A    between atoms: _192  and  _195
REMARK   89  A    between atoms: _195  and  _196
REMARK   90  A    between atoms: _196  and  _197
REMARK   91  A    between atoms: _200  and  _202
REMARK   92  A    between atoms: _202  and  _203
REMARK   93  A    between atoms: _202  and  _205
REMARK   94  A    between atoms: _205  and  _206
REMARK   95  A    between atoms: _206  and  _207
REMARK   96  A    between atoms: _209  and  _211
REMARK   97  A    between atoms: _211  and  _212
REMARK   98  A    between atoms: _211  and  _214
REMARK   99  A    between atoms: _214  and  _215
REMARK  100  A    between atoms: _218  and  _220
REMARK  101  A    between atoms: _220  and  _221
REMARK  102  A    between atoms: _220  and  _223
REMARK  103  A    between atoms: _226  and  _228
REMARK  104  A    between atoms: _228  and  _229
REMARK  105  A    between atoms: _228  and  _231
REMARK  106  A    between atoms: _234  and  _236
REMARK  107  A    between atoms: _236  and  _237
REMARK  108  A    between atoms: _236  and  _239
REMARK  109  A    between atoms: _239  and  _240
REMARK  110  A    between atoms: _240  and  _241
REMARK  111  A    between atoms: _243  and  _245
REMARK  112  A    between atoms: _245  and  _246
REMARK  113  A    between atoms: _245  and  _248
REMARK  114  A    between atoms: _248  and  _249
REMARK  115  A    between atoms: _249  and  _250
REMARK  116  A    between atoms: _253  and  _255
REMARK  117  A    between atoms: _255  and  _256
REMARK  118  A    between atoms: _255  and  _258
REMARK  119  A    between atoms: _258  and  _259
REMARK  120  A    between atoms: _265  and  _267
REMARK  121  A    between atoms: _267  and  _268
REMARK  122  A    between atoms: _267  and  _270
REMARK  123  A    between atoms: _270  and  _271
REMARK  124  A    between atoms: _274  and  _276
REMARK  125  A    between atoms: _276  and  _277
REMARK  126  A    between atoms: _276  and  _279
REMARK  127  A    between atoms: _279  and  _280
REMARK  128  A    between atoms: _280  and  _281
REMARK  129  A    between atoms: _284  and  _286
REMARK  130  A    between atoms: _286  and  _287
REMARK  131  A    between atoms: _289  and  _291
REMARK  132  A    between atoms: _291  and  _292
REMARK  133  A    between atoms: _294  and  _296
REMARK  134  A    between atoms: _296  and  _297
REMARK  135  A    between atoms: _300  and  _302
REMARK  136  A    between atoms: _302  and  _303
REMARK  137  A    between atoms: _302  and  _305
REMARK  138  A    between atoms: _305  and  _306
REMARK  139  A    between atoms: _309  and  _311
REMARK  140  A    between atoms: _311  and  _312
REMARK  141  A    between atoms: _311  and  _314
REMARK  142  A    between atoms: _314  and  _315
REMARK  143  A    between atoms: _318  and  _320
REMARK  144  A    between atoms: _320  and  _321
REMARK  145  A    between atoms: _320  and  _323
REMARK  146  A    between atoms: _323  and  _324
REMARK  147  A    between atoms: _327  and  _329
REMARK  148  A    between atoms: _329  and  _330
REMARK  149  A    between atoms: _329  and  _332
REMARK  150  A    between atoms: _332  and  _333
REMARK  151  A    between atoms: _336  and  _338
REMARK  152  A    between atoms: _338  and  _339
REMARK  153  A    between atoms: _338  and  _341
REMARK  154  A    between atoms: _341  and  _342
REMARK  155  A    between atoms: _345  and  _347
REMARK  156  A    between atoms: _347  and  _348
REMARK  157  A    between atoms: _347  and  _350
REMARK  158  A    between atoms: _350  and  _351
REMARK  159  A    between atoms: _356  and  _358
REMARK  160  A    between atoms: _358  and  _359
REMARK  161  A    between atoms: _358  and  _361
REMARK  162  A    between atoms: _361  and  _362
REMARK  163  A    between atoms: _365  and  _367
REMARK  164  A    between atoms: _367  and  _368
REMARK  165  A    between atoms: _367  and  _370
REMARK  166  A    between atoms: _370  and  _371
REMARK  167  A    between atoms: _371  and  _372
REMARK  168  A    between atoms: _372  and  _373
REMARK  169  A    between atoms: _373  and  _374
REMARK  170  A    between atoms: _378  and  _380
REMARK  171  A    between atoms: _380  and  _381
REMARK  172  A    between atoms: _380  and  _383
REMARK  173  A    between atoms: _383  and  _384
REMARK  174  A    between atoms: _386  and  _388
REMARK  175  A    between atoms: _388  and  _389
REMARK  176  A    between atoms: _388  and  _391
REMARK  177  A    between atoms: _391  and  _392
REMARK  178  A    between atoms: _395  and  _397
REMARK  179  A    between atoms: _397  and  _398
REMARK  180  A    between atoms: _397  and  _400
REMARK  181  A    between atoms: _400  and  _401
REMARK  182  A    between atoms: _403  and  _405
REMARK  183  A    between atoms: _405  and  _406
REMARK  184  A    between atoms: _405  and  _408
REMARK  185  A    between atoms: _408  and  _409
REMARK  186  A    between atoms: _412  and  _414
REMARK  187  A    between atoms: _414  and  _415
REMARK  188  A    between atoms: _414  and  _417
REMARK  189  A    between atoms: _417  and  _418
REMARK  190  A    between atoms: _421  and  _423
REMARK  191  A    between atoms: _423  and  _424
REMARK  192  A    between atoms: _423  and  _426
REMARK  193  A    between atoms: _426  and  _427
REMARK  194  A    between atoms: _430  and  _432
REMARK  195  A    between atoms: _432  and  _433
REMARK  196  A    between atoms: _432  and  _435
REMARK  197  A    between atoms: _435  and  _436
REMARK  198  A    between atoms: _439  and  _441
REMARK  199  A    between atoms: _441  and  _442
REMARK  200  A    between atoms: _441  and  _444
REMARK  201  A    between atoms: _444  and  _445
REMARK  202  A    between atoms: _447  and  _449
REMARK  203  A    between atoms: _449  and  _450
REMARK  204  A    between atoms: _449  and  _452
REMARK  205  A    between atoms: _452  and  _453
REMARK  206  A    between atoms: _456  and  _458
REMARK  207  A    between atoms: _458  and  _459
REMARK  208  A    between atoms: _458  and  _461
REMARK  209  A    between atoms: _461  and  _462
REMARK  210  A    between atoms: _468  and  _470
REMARK  211  A    between atoms: _470  and  _471
REMARK  212  A    between atoms: _473  and  _475
REMARK  213  A    between atoms: _475  and  _476
REMARK  214  A    between atoms: _475  and  _478
REMARK  215  A    between atoms: _478  and  _479
REMARK  216  A    between atoms: _479  and  _480
REMARK  217  A    between atoms: _482  and  _484
REMARK  218  A    between atoms: _484  and  _485
REMARK  219  A    between atoms: _484  and  _487
REMARK  220  A    between atoms: _487  and  _488
REMARK  221  A    between atoms: _488  and  _489
REMARK  222  A    between atoms: _489  and  _490
REMARK  223  A    between atoms: _499  and  _501
REMARK  224  A    between atoms: _501  and  _502
REMARK  225  A    between atoms: _501  and  _504
REMARK  226  A    between atoms: _504  and  _505
REMARK  227  A    between atoms: _505  and  _506
REMARK  228  A    between atoms: _511  and  _513
REMARK  229  A    between atoms: _513  and  _514
REMARK  230  A    between atoms: _513  and  _516
REMARK  231  A    between atoms: _516  and  _517
REMARK  232  A    between atoms: _517  and  _518
REMARK  233  A    between atoms: _518  and  _519
REMARK                            x       y       z     vdW  Elec       q    Type
REMARK                         _______ _______ _______ _____ _____    ______ ____
ROOT
ATOM      1  O   HOH     1      40.337  10.628  26.392  0.00  0.00    +0.000 OA
ENDROOT
TORSDOF 0
REMARK  Name = ../refined-set-2016/4app/4app_pocket.pdb
REMARK  233 active torsions:
REMARK  status: ('A' for Active; 'I' for Inactive)
REMARK    1  A    between atoms: _1  and  _3
REMARK    2  A    between atoms: _3  and  _4
REMARK    3  A    between atoms: _3  and  _6
REMARK    4  A    between atoms: _6  and  _7
REMARK    5  A    between atoms: _10  and  _12
REMARK    6  A    between atoms: _12  and  _13
REMARK    7  A    between atoms: _15  and  _17
REMARK    8  A    between atoms: _17  and  _18
REMARK    9  A    between atoms: _17  and  _20
REMARK   10  A    between atoms: _20  and  _21
REMARK   11  A    between atoms: _21  and  _22
REMARK   12  A    between atoms: _25  and  _27
REMARK   13  A    between atoms: _27  and  _28
REMARK   14  A    between atoms: _30  and  _32
REMARK   15  A    between atoms: _32  and  _33
REMARK   16  A    between atoms: _32  and  _35
REMARK   17  A    between atoms: _35  and  _36
REMARK   18  A    between atoms: _38  and  _40
REMARK   19  A    between atoms: _40  and  _41
REMARK   20  A    between atoms: _40  and  _43
REMARK   21  A    between atoms: _43  and  _44
REMARK   22  A    between atoms: _47  and  _49
REMARK   23  A    between atoms: _49  and  _50
REMARK   24  A    between atoms: _52  and  _54
REMARK   25  A    between atoms: _54  and  _55
REMARK   26  A    between atoms: _54  and  _57
REMARK   27  A    between atoms: _57  and  _58
REMARK   28  A    between atoms: _61  and  _63
REMARK   29  A    between atoms: _63  and  _64
REMARK   30  A    between atoms: _63  and  _66
REMARK   31  A    between atoms: _69  and  _71
REMARK   32  A    between atoms: _71  and  _72
REMARK   33  A    between atoms: _71  and  _74
REMARK   34  A    between atoms: _76  and  _78
REMARK   35  A    between atoms: _78  and  _79
REMARK   36  A    between atoms: _78  and  _81
REMARK   37  A    between atoms: _81  and  _82
REMARK   38  A    between atoms: _85  and  _87
REMARK   39  A    between atoms: _87  and  _88
REMARK   40  A    between atoms: _87  and  _90
REMARK   41  A    between atoms: _90  and  _91
REMARK   42  A    between atoms: _94  and  _96
REMARK   43  A    between atoms: _96  and  _97
REMARK   44  A    between atoms: _96  and  _99
REMARK   45  A    between atoms: _102  and  _104
REMARK   46  A    between atoms: _104  and  _105
REMARK   47  A    between atoms: _108  and  _110
REMARK   48  A    between atoms: _110  and  _111
REMARK   49  A    between atoms: _110  and  _113
REMARK   50  A    between atoms: _116  and  _118
REMARK   51  A    between atoms: _118  and  _119
REMARK   52  A    between atoms: _118  and  _121
REMARK   53  A    between atoms: _121  and  _122
REMARK   54  A    between atoms: _122  and  _123
REMARK   55  A    between atoms: _123  and  _124
REMARK   56  A    between atoms: _124  and  _125
REMARK   57  A    between atoms: _129  and  _131
REMARK   58  A    between atoms: _131  and  _132
REMARK   59  A    between atoms: _131  and  _134
REMARK   60  A    between atoms: _134  and  _135
REMARK   61  A    between atoms: _135  and  _136
REMARK   62  A    between atoms: _136  and  _137
REMARK   63  A    between atoms: _137  and  _138
REMARK   64  A    between atoms: _142  and  _144
REMARK   65  A    between atoms: _144  and  _145
REMARK   66  A    between atoms: _144  and  _147
REMARK   67  A    between atoms: _147  and  _148
REMARK   68  A    between atoms: _148  and  _149
REMARK   69  A    between atoms: _151  and  _153
REMARK   70  A    between atoms: _153  and  _154
REMARK   71  A    between atoms: _153  and  _156
REMARK   72  A    between atoms: _156  and  _157
REMARK   73  A    between atoms: _160  and  _162
REMARK   74  A    between atoms: _162  and  _163
REMARK   75  A    between atoms: _162  and  _165
REMARK   76  A    between atoms: _165  and  _166
REMARK   77  A    between atoms: _166  and  _167
REMARK   78  A    between atoms: _172  and  _174
REMARK   79  A    between atoms: _174  and  _175
REMARK   80  A    between atoms: _174  and  _177
REMARK   81  A    between atoms: _177  and  _178
REMARK   82  A    between atoms: _178  and  _179
REMARK   83  A    between atoms: _182  and  _184
REMARK   84  A    between atoms: _184  and  _185
REMARK   85  A    between atoms: _184  and  _187
REMARK   86  A    between atoms: _190  and  _192
REMARK   87  A    between atoms: _192  and  _193
REMARK   88  A    between atoms: _192  and  _195
REMARK   89  A    between atoms: _195  and  _196
REMARK   90  A    between atoms: _196  and  _197
REMARK   91  A    between atoms: _200  and  _202
REMARK   92  A    between atoms: _202  and  _203
REMARK   93  A    between atoms: _202  and  _205
REMARK   94  A    between atoms: _205  and  _206
REMARK   95  A    between atoms: _206  and  _207
REMARK   96  A    between atoms: _209  and  _211
REMARK   97  A    between atoms: _211  and  _212
REMARK   98  A    between atoms: _211  and  _214
REMARK   99  A    between atoms: _214  and  _215
REMARK  100  A    between atoms: _218  and  _220
REMARK  101  A    between atoms: _220  and  _221
REMARK  102  A    between atoms: _220  and  _223
REMARK  103  A    between atoms: _226  and  _228
REMARK  104  A    between atoms: _228  and  _229
REMARK  105  A    between atoms: _228  and  _231
REMARK  106  A    between atoms: _234  and  _236
REMARK  107  A    between atoms: _236  and  _237
REMARK  108  A    between atoms: _236  and  _239
REMARK  109  A    between atoms: _239  and  _240
REMARK  110  A    between atoms: _240  and  _241
REMARK  111  A    between atoms: _243  and  _245
REMARK  112  A    between atoms: _245  and  _246
REMARK  113  A    between atoms: _245  and  _248
REMARK  114  A    between atoms: _248  and  _249
REMARK  115  A    between atoms: _249  and  _250
REMARK  116  A    between atoms: _253  and  _255
REMARK  117  A    between atoms: _255  and  _256
REMARK  118  A    between atoms: _255  and  _258
REMARK  119  A    between atoms: _258  and  _259
REMARK  120  A    between atoms: _265  and  _267
REMARK  121  A    between atoms: _267  and  _268
REMARK  122  A    between atoms: _267  and  _270
REMARK  123  A    between atoms: _270  and  _271
REMARK  124  A    between atoms: _274  and  _276
REMARK  125  A    between atoms: _276  and  _277
REMARK  126  A    between atoms: _276  and  _279
REMARK  127  A    between atoms: _279  and  _280
REMARK  128  A    between atoms: _280  and  _281
REMARK  129  A    between atoms: _284  and  _286
REMARK  130  A    between atoms: _286  and  _287
REMARK  131  A    between atoms: _289  and  _291
REMARK  132  A    between atoms: _291  and  _292
REMARK  133  A    between atoms: _294  and  _296
REMARK  134  A    between atoms: _296  and  _297
REMARK  135  A    between atoms: _300  and  _302
REMARK  136  A    between atoms: _302  and  _303
REMARK  137  A    between atoms: _302  and  _305
REMARK  138  A    between atoms: _305  and  _306
REMARK  139  A    between atoms: _309  and  _311
REMARK  140  A    between atoms: _311  and  _312
REMARK  141  A    between atoms: _311  and  _314
REMARK  142  A    between atoms: _314  and  _315
REMARK  143  A    between atoms: _318  and  _320
REMARK  144  A    between atoms: _320  and  _321
REMARK  145  A    between atoms: _320  and  _323
REMARK  146  A    between atoms: _323  and  _324
REMARK  147  A    between atoms: _327  and  _329
REMARK  148  A    between atoms: _329  and  _330
REMARK  149  A    between atoms: _329  and  _332
REMARK  150  A    between atoms: _332  and  _333
REMARK  151  A    between atoms: _336  and  _338
REMARK  152  A    between atoms: _338  and  _339
REMARK  153  A    between atoms: _338  and  _341
REMARK  154  A    between atoms: _341  and  _342
REMARK  155  A    between atoms: _345  and  _347
REMARK  156  A    between atoms: _347  and  _348
REMARK  157  A    between atoms: _347  and  _350
REMARK  158  A    between atoms: _350  and  _351
REMARK  159  A    between atoms: _356  and  _358
REMARK  160  A    between atoms: _358  and  _359
REMARK  161  A    between atoms: _358  and  _361
REMARK  162  A    between atoms: _361  and  _362
REMARK  163  A    between atoms: _365  and  _367
REMARK  164  A    between atoms: _367  and  _368
REMARK  165  A    between atoms: _367  and  _370
REMARK  166  A    between atoms: _370  and  _371
REMARK  167  A    between atoms: _371  and  _372
REMARK  168  A    between atoms: _372  and  _373
REMARK  169  A    between atoms: _373  and  _374
REMARK  170  A    between atoms: _378  and  _380
REMARK  171  A    between atoms: _380  and  _381
REMARK  172  A    between atoms: _380  and  _383
REMARK  173  A    between atoms: _383  and  _384
REMARK  174  A    between atoms: _386  and  _388
REMARK  175  A    between atoms: _388  and  _389
REMARK  176  A    between atoms: _388  and  _391
REMARK  177  A    between atoms: _391  and  _392
REMARK  178  A    between atoms: _395  and  _397
REMARK  179  A    between atoms: _397  and  _398
REMARK  180  A    between atoms: _397  and  _400
REMARK  181  A    between atoms: _400  and  _401
REMARK  182  A    between atoms: _403  and  _405
REMARK  183  A    between atoms: _405  and  _406
REMARK  184  A    between atoms: _405  and  _408
REMARK  185  A    between atoms: _408  and  _409
REMARK  186  A    between atoms: _412  and  _414
REMARK  187  A    between atoms: _414  and  _415
REMARK  188  A    between atoms: _414  and  _417
REMARK  189  A    between atoms: _417  and  _418
REMARK  190  A    between atoms: _421  and  _423
REMARK  191  A    between atoms: _423  and  _424
REMARK  192  A    between atoms: _423  and  _426
REMARK  193  A    between atoms: _426  and  _427
REMARK  194  A    between atoms: _430  and  _432
REMARK  195  A    between atoms: _432  and  _433
REMARK  196  A    between atoms: _432  and  _435
REMARK  197  A    between atoms: _435  and  _436
REMARK  198  A    between atoms: _439  and  _441
REMARK  199  A    between atoms: _441  and  _442
REMARK  200  A    between atoms: _441  and  _444
REMARK  201  A    between atoms: _444  and  _445
REMARK  202  A    between atoms: _447  and  _449
REMARK  203  A    between atoms: _449  and  _450
REMARK  204  A    between atoms: _449  and  _452
REMARK  205  A    between atoms: _452  and  _453
REMARK  206  A    between atoms: _456  and  _458
REMARK  207  A    between atoms: _458  and  _459
REMARK  208  A    between atoms: _458  and  _461
REMARK  209  A    between atoms: _461  and  _462
REMARK  210  A    between atoms: _468  and  _470
REMARK  211  A    between atoms: _470  and  _471
REMARK  212  A    between atoms: _473  and  _475
REMARK  213  A    between atoms: _475  and  _476
REMARK  214  A    between atoms: _475  and  _478
REMARK  215  A    between atoms: _478  and  _479
REMARK  216  A    between atoms: _479  and  _480
REMARK  217  A    between atoms: _482  and  _484
REMARK  218  A    between atoms: _484  and  _485
REMARK  219  A    between atoms: _484  and  _487
REMARK  220  A    between atoms: _487  and  _488
REMARK  221  A    between atoms: _488  and  _489
REMARK  222  A    between atoms: _489  and  _490
REMARK  223  A    between atoms: _499  and  _501
REMARK  224  A    between atoms: _501  and  _502
REMARK  225  A    between atoms: _501  and  _504
REMARK  226  A    between atoms: _504  and  _505
REMARK  227  A    between atoms: _505  and  _506
REMARK  228  A    between atoms: _511  and  _513
REMARK  229  A    between atoms: _513  and  _514
REMARK  230  A    between atoms: _513  and  _516
REMARK  231  A    between atoms: _516  and  _517
REMARK  232  A    between atoms: _517  and  _518
REMARK  233  A    between atoms: _518  and  _519
REMARK                            x       y       z     vdW  Elec       q    Type
REMARK                         _______ _______ _______ _____ _____    ______ ____
ROOT
ATOM      1  O   HOH     1      44.711  27.323  18.057  0.00  0.00    +0.000 OA
ENDROOT
TORSDOF 0
REMARK  Name = ../refined-set-2016/4app/4app_pocket.pdb
REMARK  233 active torsions:
REMARK  status: ('A' for Active; 'I' for Inactive)
REMARK    1  A    between atoms: _1  and  _3
REMARK    2  A    between atoms: _3  and  _4
REMARK    3  A    between atoms: _3  and  _6
REMARK    4  A    between atoms: _6  and  _7
REMARK    5  A    between atoms: _10  and  _12
REMARK    6  A    between atoms: _12  and  _13
REMARK    7  A    between atoms: _15  and  _17
REMARK    8  A    between atoms: _17  and  _18
REMARK    9  A    between atoms: _17  and  _20
REMARK   10  A    between atoms: _20  and  _21
REMARK   11  A    between atoms: _21  and  _22
REMARK   12  A    between atoms: _25  and  _27
REMARK   13  A    between atoms: _27  and  _28
REMARK   14  A    between atoms: _30  and  _32
REMARK   15  A    between atoms: _32  and  _33
REMARK   16  A    between atoms: _32  and  _35
REMARK   17  A    between atoms: _35  and  _36
REMARK   18  A    between atoms: _38  and  _40
REMARK   19  A    between atoms: _40  and  _41
REMARK   20  A    between atoms: _40  and  _43
REMARK   21  A    between atoms: _43  and  _44
REMARK   22  A    between atoms: _47  and  _49
REMARK   23  A    between atoms: _49  and  _50
REMARK   24  A    between atoms: _52  and  _54
REMARK   25  A    between atoms: _54  and  _55
REMARK   26  A    between atoms: _54  and  _57
REMARK   27  A    between atoms: _57  and  _58
REMARK   28  A    between atoms: _61  and  _63
REMARK   29  A    between atoms: _63  and  _64
REMARK   30  A    between atoms: _63  and  _66
REMARK   31  A    between atoms: _69  and  _71
REMARK   32  A    between atoms: _71  and  _72
REMARK   33  A    between atoms: _71  and  _74
REMARK   34  A    between atoms: _76  and  _78
REMARK   35  A    between atoms: _78  and  _79
REMARK   36  A    between atoms: _78  and  _81
REMARK   37  A    between atoms: _81  and  _82
REMARK   38  A    between atoms: _85  and  _87
REMARK   39  A    between atoms: _87  and  _88
REMARK   40  A    between atoms: _87  and  _90
REMARK   41  A    between atoms: _90  and  _91
REMARK   42  A    between atoms: _94  and  _96
REMARK   43  A    between atoms: _96  and  _97
REMARK   44  A    between atoms: _96  and  _99
REMARK   45  A    between atoms: _102  and  _104
REMARK   46  A    between atoms: _104  and  _105
REMARK   47  A    between atoms: _108  and  _110
REMARK   48  A    between atoms: _110  and  _111
REMARK   49  A    between atoms: _110  and  _113
REMARK   50  A    between atoms: _116  and  _118
REMARK   51  A    between atoms: _118  and  _119
REMARK   52  A    between atoms: _118  and  _121
REMARK   53  A    between atoms: _121  and  _122
REMARK   54  A    between atoms: _122  and  _123
REMARK   55  A    between atoms: _123  and  _124
REMARK   56  A    between atoms: _124  and  _125
REMARK   57  A    between atoms: _129  and  _131
REMARK   58  A    between atoms: _131  and  _132
REMARK   59  A    between atoms: _131  and  _134
REMARK   60  A    between atoms: _134  and  _135
REMARK   61  A    between atoms: _135  and  _136
REMARK   62  A    between atoms: _136  and  _137
REMARK   63  A    between atoms: _137  and  _138
REMARK   64  A    between atoms: _142  and  _144
REMARK   65  A    between atoms: _144  and  _145
REMARK   66  A    between atoms: _144  and  _147
REMARK   67  A    between atoms: _147  and  _148
REMARK   68  A    between atoms: _148  and  _149
REMARK   69  A    between atoms: _151  and  _153
REMARK   70  A    between atoms: _153  and  _154
REMARK   71  A    between atoms: _153  and  _156
REMARK   72  A    between atoms: _156  and  _157
REMARK   73  A    between atoms: _160  and  _162
REMARK   74  A    between atoms: _162  and  _163
REMARK   75  A    between atoms: _162  and  _165
REMARK   76  A    between atoms: _165  and  _166
REMARK   77  A    between atoms: _166  and  _167
REMARK   78  A    between atoms: _172  and  _174
REMARK   79  A    between atoms: _174  and  _175
REMARK   80  A    between atoms: _174  and  _177
REMARK   81  A    between atoms: _177  and  _178
REMARK   82  A    between atoms: _178  and  _179
REMARK   83  A    between atoms: _182  and  _184
REMARK   84  A    between atoms: _184  and  _185
REMARK   85  A    between atoms: _184  and  _187
REMARK   86  A    between atoms: _190  and  _192
REMARK   87  A    between atoms: _192  and  _193
REMARK   88  A    between atoms: _192  and  _195
REMARK   89  A    between atoms: _195  and  _196
REMARK   90  A    between atoms: _196  and  _197
REMARK   91  A    between atoms: _200  and  _202
REMARK   92  A    between atoms: _202  and  _203
REMARK   93  A    between atoms: _202  and  _205
REMARK   94  A    between atoms: _205  and  _206
REMARK   95  A    between atoms: _206  and  _207
REMARK   96  A    between atoms: _209  and  _211
REMARK   97  A    between atoms: _211  and  _212
REMARK   98  A    between atoms: _211  and  _214
REMARK   99  A    between atoms: _214  and  _215
REMARK  100  A    between atoms: _218  and  _220
REMARK  101  A    between atoms: _220  and  _221
REMARK  102  A    between atoms: _220  and  _223
REMARK  103  A    between atoms: _226  and  _228
REMARK  104  A    between atoms: _228  and  _229
REMARK  105  A    between atoms: _228  and  _231
REMARK  106  A    between atoms: _234  and  _236
REMARK  107  A    between atoms: _236  and  _237
REMARK  108  A    between atoms: _236  and  _239
REMARK  109  A    between atoms: _239  and  _240
REMARK  110  A    between atoms: _240  and  _241
REMARK  111  A    between atoms: _243  and  _245
REMARK  112  A    between atoms: _245  and  _246
REMARK  113  A    between atoms: _245  and  _248
REMARK  114  A    between atoms: _248  and  _249
REMARK  115  A    between atoms: _249  and  _250
REMARK  116  A    between atoms: _253  and  _255
REMARK  117  A    between atoms: _255  and  _256
REMARK  118  A    between atoms: _255  and  _258
REMARK  119  A    between atoms: _258  and  _259
REMARK  120  A    between atoms: _265  and  _267
REMARK  121  A    between atoms: _267  and  _268
REMARK  122  A    between atoms: _267  and  _270
REMARK  123  A    between atoms: _270  and  _271
REMARK  124  A    between atoms: _274  and  _276
REMARK  125  A    between atoms: _276  and  _277
REMARK  126  A    between atoms: _276  and  _279
REMARK  127  A    between atoms: _279  and  _280
REMARK  128  A    between atoms: _280  and  _281
REMARK  129  A    between atoms: _284  and  _286
REMARK  130  A    between atoms: _286  and  _287
REMARK  131  A    between atoms: _289  and  _291
REMARK  132  A    between atoms: _291  and  _292
REMARK  133  A    between atoms: _294  and  _296
REMARK  134  A    between atoms: _296  and  _297
REMARK  135  A    between atoms: _300  and  _302
REMARK  136  A    between atoms: _302  and  _303
REMARK  137  A    between atoms: _302  and  _305
REMARK  138  A    between atoms: _305  and  _306
REMARK  139  A    between atoms: _309  and  _311
REMARK  140  A    between atoms: _311  and  _312
REMARK  141  A    between atoms: _311  and  _314
REMARK  142  A    between atoms: _314  and  _315
REMARK  143  A    between atoms: _318  and  _320
REMARK  144  A    between atoms: _320  and  _321
REMARK  145  A    between atoms: _320  and  _323
REMARK  146  A    between atoms: _323  and  _324
REMARK  147  A    between atoms: _327  and  _329
REMARK  148  A    between atoms: _329  and  _330
REMARK  149  A    between atoms: _329  and  _332
REMARK  150  A    between atoms: _332  and  _333
REMARK  151  A    between atoms: _336  and  _338
REMARK  152  A    between atoms: _338  and  _339
REMARK  153  A    between atoms: _338  and  _341
REMARK  154  A    between atoms: _341  and  _342
REMARK  155  A    between atoms: _345  and  _347
REMARK  156  A    between atoms: _347  and  _348
REMARK  157  A    between atoms: _347  and  _350
REMARK  158  A    between atoms: _350  and  _351
REMARK  159  A    between atoms: _356  and  _358
REMARK  160  A    between atoms: _358  and  _359
REMARK  161  A    between atoms: _358  and  _361
REMARK  162  A    between atoms: _361  and  _362
REMARK  163  A    between atoms: _365  and  _367
REMARK  164  A    between atoms: _367  and  _368
REMARK  165  A    between atoms: _367  and  _370
REMARK  166  A    between atoms: _370  and  _371
REMARK  167  A    between atoms: _371  and  _372
REMARK  168  A    between atoms: _372  and  _373
REMARK  169  A    between atoms: _373  and  _374
REMARK  170  A    between atoms: _378  and  _380
REMARK  171  A    between atoms: _380  and  _381
REMARK  172  A    between atoms: _380  and  _383
REMARK  173  A    between atoms: _383  and  _384
REMARK  174  A    between atoms: _386  and  _388
REMARK  175  A    between atoms: _388  and  _389
REMARK  176  A    between atoms: _388  and  _391
REMARK  177  A    between atoms: _391  and  _392
REMARK  178  A    between atoms: _395  and  _397
REMARK  179  A    between atoms: _397  and  _398
REMARK  180  A    between atoms: _397  and  _400
REMARK  181  A    between atoms: _400  and  _401
REMARK  182  A    between atoms: _403  and  _405
REMARK  183  A    between atoms: _405  and  _406
REMARK  184  A    between atoms: _405  and  _408
REMARK  185  A    between atoms: _408  and  _409
REMARK  186  A    between atoms: _412  and  _414
REMARK  187  A    between atoms: _414  and  _415
REMARK  188  A    between atoms: _414  and  _417
REMARK  189  A    between atoms: _417  and  _418
REMARK  190  A    between atoms: _421  and  _423
REMARK  191  A    between atoms: _423  and  _424
REMARK  192  A    between atoms: _423  and  _426
REMARK  193  A    between atoms: _426  and  _427
REMARK  194  A    between atoms: _430  and  _432
REMARK  195  A    between atoms: _432  and  _433
REMARK  196  A    between atoms: _432  and  _435
REMARK  197  A    between atoms: _435  and  _436
REMARK  198  A    between atoms: _439  and  _441
REMARK  199  A    between atoms: _441  and  _442
REMARK  200  A    between atoms: _441  and  _444
REMARK  201  A    between atoms: _444  and  _445
REMARK  202  A    between atoms: _447  and  _449
REMARK  203  A    between atoms: _449  and  _450
REMARK  204  A    between atoms: _449  and  _452
REMARK  205  A    between atoms: _452  and  _453
REMARK  206  A    between atoms: _456  and  _458
REMARK  207  A    between atoms: _458  and  _459
REMARK  208  A    between atoms: _458  and  _461
REMARK  209  A    between atoms: _461  and  _462
REMARK  210  A    between atoms: _468  and  _470
REMARK  211  A    between atoms: _470  and  _471
REMARK  212  A    between atoms: _473  and  _475
REMARK  213  A    between atoms: _475  and  _476
REMARK  214  A    between atoms: _475  and  _478
REMARK  215  A    between atoms: _478  and  _479
REMARK  216  A    between atoms: _479  and  _480
REMARK  217  A    between atoms: _482  and  _484
REMARK  218  A    between atoms: _484  and  _485
REMARK  219  A    between atoms: _484  and  _487
REMARK  220  A    between atoms: _487  and  _488
REMARK  221  A    between atoms: _488  and  _489
REMARK  222  A    between atoms: _489  and  _490
REMARK  223  A    between atoms: _499  and  _501
REMARK  224  A    between atoms: _501  and  _502
REMARK  225  A    between atoms: _501  and  _504
REMARK  226  A    between atoms: _504  and  _505
REMARK  227  A    between atoms: _505  and  _506
REMARK  228  A    between atoms: _511  and  _513
REMARK  229  A    between atoms: _513  and  _514
REMARK  230  A    between atoms: _513  and  _516
REMARK  231  A    between atoms: _516  and  _517
REMARK  232  A    between atoms: _517  and  _518
REMARK  233  A    between atoms: _518  and  _519
REMARK                            x       y       z     vdW  Elec       q    Type
REMARK                         _______ _______ _______ _____ _____    ______ ____
ROOT
ATOM      1  O   HOH     1      40.749  25.186  12.207  0.00  0.00    +0.000 OA
ENDROOT
TORSDOF 0
REMARK  Name = ../refined-set-2016/4app/4app_pocket.pdb
REMARK  233 active torsions:
REMARK  status: ('A' for Active; 'I' for Inactive)
REMARK    1  A    between atoms: _1  and  _3
REMARK    2  A    between atoms: _3  and  _4
REMARK    3  A    between atoms: _3  and  _6
REMARK    4  A    between atoms: _6  and  _7
REMARK    5  A    between atoms: _10  and  _12
REMARK    6  A    between atoms: _12  and  _13
REMARK    7  A    between atoms: _15  and  _17
REMARK    8  A    between atoms: _17  and  _18
REMARK    9  A    between atoms: _17  and  _20
REMARK   10  A    between atoms: _20  and  _21
REMARK   11  A    between atoms: _21  and  _22
REMARK   12  A    between atoms: _25  and  _27
REMARK   13  A    between atoms: _27  and  _28
REMARK   14  A    between atoms: _30  and  _32
REMARK   15  A    between atoms: _32  and  _33
REMARK   16  A    between atoms: _32  and  _35
REMARK   17  A    between atoms: _35  and  _36
REMARK   18  A    between atoms: _38  and  _40
REMARK   19  A    between atoms: _40  and  _41
REMARK   20  A    between atoms: _40  and  _43
REMARK   21  A    between atoms: _43  and  _44
REMARK   22  A    between atoms: _47  and  _49
REMARK   23  A    between atoms: _49  and  _50
REMARK   24  A    between atoms: _52  and  _54
REMARK   25  A    between atoms: _54  and  _55
REMARK   26  A    between atoms: _54  and  _57
REMARK   27  A    between atoms: _57  and  _58
REMARK   28  A    between atoms: _61  and  _63
REMARK   29  A    between atoms: _63  and  _64
REMARK   30  A    between atoms: _63  and  _66
REMARK   31  A    between atoms: _69  and  _71
REMARK   32  A    between atoms: _71  and  _72
REMARK   33  A    between atoms: _71  and  _74
REMARK   34  A    between atoms: _76  and  _78
REMARK   35  A    between atoms: _78  and  _79
REMARK   36  A    between atoms: _78  and  _81
REMARK   37  A    between atoms: _81  and  _82
REMARK   38  A    between atoms: _85  and  _87
REMARK   39  A    between atoms: _87  and  _88
REMARK   40  A    between atoms: _87  and  _90
REMARK   41  A    between atoms: _90  and  _91
REMARK   42  A    between atoms: _94  and  _96
REMARK   43  A    between atoms: _96  and  _97
REMARK   44  A    between atoms: _96  and  _99
REMARK   45  A    between atoms: _102  and  _104
REMARK   46  A    between atoms: _104  and  _105
REMARK   47  A    between atoms: _108  and  _110
REMARK   48  A    between atoms: _110  and  _111
REMARK   49  A    between atoms: _110  and  _113
REMARK   50  A    between atoms: _116  and  _118
REMARK   51  A    between atoms: _118  and  _119
REMARK   52  A    between atoms: _118  and  _121
REMARK   53  A    between atoms: _121  and  _122
REMARK   54  A    between atoms: _122  and  _123
REMARK   55  A    between atoms: _123  and  _124
REMARK   56  A    between atoms: _124  and  _125
REMARK   57  A    between atoms: _129  and  _131
REMARK   58  A    between atoms: _131  and  _132
REMARK   59  A    between atoms: _131  and  _134
REMARK   60  A    between atoms: _134  and  _135
REMARK   61  A    between atoms: _135  and  _136
REMARK   62  A    between atoms: _136  and  _137
REMARK   63  A    between atoms: _137  and  _138
REMARK   64  A    between atoms: _142  and  _144
REMARK   65  A    between atoms: _144  and  _145
REMARK   66  A    between atoms: _144  and  _147
REMARK   67  A    between atoms: _147  and  _148
REMARK   68  A    between atoms: _148  and  _149
REMARK   69  A    between atoms: _151  and  _153
REMARK   70  A    between atoms: _153  and  _154
REMARK   71  A    between atoms: _153  and  _156
REMARK   72  A    between atoms: _156  and  _157
REMARK   73  A    between atoms: _160  and  _162
REMARK   74  A    between atoms: _162  and  _163
REMARK   75  A    between atoms: _162  and  _165
REMARK   76  A    between atoms: _165  and  _166
REMARK   77  A    between atoms: _166  and  _167
REMARK   78  A    between atoms: _172  and  _174
REMARK   79  A    between atoms: _174  and  _175
REMARK   80  A    between atoms: _174  and  _177
REMARK   81  A    between atoms: _177  and  _178
REMARK   82  A    between atoms: _178  and  _179
REMARK   83  A    between atoms: _182  and  _184
REMARK   84  A    between atoms: _184  and  _185
REMARK   85  A    between atoms: _184  and  _187
REMARK   86  A    between atoms: _190  and  _192
REMARK   87  A    between atoms: _192  and  _193
REMARK   88  A    between atoms: _192  and  _195
REMARK   89  A    between atoms: _195  and  _196
REMARK   90  A    between atoms: _196  and  _197
REMARK   91  A    between atoms: _200  and  _202
REMARK   92  A    between atoms: _202  and  _203
REMARK   93  A    between atoms: _202  and  _205
REMARK   94  A    between atoms: _205  and  _206
REMARK   95  A    between atoms: _206  and  _207
REMARK   96  A    between atoms: _209  and  _211
REMARK   97  A    between atoms: _211  and  _212
REMARK   98  A    between atoms: _211  and  _214
REMARK   99  A    between atoms: _214  and  _215
REMARK  100  A    between atoms: _218  and  _220
REMARK  101  A    between atoms: _220  and  _221
REMARK  102  A    between atoms: _220  and  _223
REMARK  103  A    between atoms: _226  and  _228
REMARK  104  A    between atoms: _228  and  _229
REMARK  105  A    between atoms: _228  and  _231
REMARK  106  A    between atoms: _234  and  _236
REMARK  107  A    between atoms: _236  and  _237
REMARK  108  A    between atoms: _236  and  _239
REMARK  109  A    between atoms: _239  and  _240
REMARK  110  A    between atoms: _240  and  _241
REMARK  111  A    between atoms: _243  and  _245
REMARK  112  A    between atoms: _245  and  _246
REMARK  113  A    between atoms: _245  and  _248
REMARK  114  A    between atoms: _248  and  _249
REMARK  115  A    between atoms: _249  and  _250
REMARK  116  A    between atoms: _253  and  _255
REMARK  117  A    between atoms: _255  and  _256
REMARK  118  A    between atoms: _255  and  _258
REMARK  119  A    between atoms: _258  and  _259
REMARK  120  A    between atoms: _265  and  _267
REMARK  121  A    between atoms: _267  and  _268
REMARK  122  A    between atoms: _267  and  _270
REMARK  123  A    between atoms: _270  and  _271
REMARK  124  A    between atoms: _274  and  _276
REMARK  125  A    between atoms: _276  and  _277
REMARK  126  A    between atoms: _276  and  _279
REMARK  127  A    between atoms: _279  and  _280
REMARK  128  A    between atoms: _280  and  _281
REMARK  129  A    between atoms: _284  and  _286
REMARK  130  A    between atoms: _286  and  _287
REMARK  131  A    between atoms: _289  and  _291
REMARK  132  A    between atoms: _291  and  _292
REMARK  133  A    between atoms: _294  and  _296
REMARK  134  A    between atoms: _296  and  _297
REMARK  135  A    between atoms: _300  and  _302
REMARK  136  A    between atoms: _302  and  _303
REMARK  137  A    between atoms: _302  and  _305
REMARK  138  A    between atoms: _305  and  _306
REMARK  139  A    between atoms: _309  and  _311
REMARK  140  A    between atoms: _311  and  _312
REMARK  141  A    between atoms: _311  and  _314
REMARK  142  A    between atoms: _314  and  _315
REMARK  143  A    between atoms: _318  and  _320
REMARK  144  A    between atoms: _320  and  _321
REMARK  145  A    between atoms: _320  and  _323
REMARK  146  A    between atoms: _323  and  _324
REMARK  147  A    between atoms: _327  and  _329
REMARK  148  A    between atoms: _329  and  _330
REMARK  149  A    between atoms: _329  and  _332
REMARK  150  A    between atoms: _332  and  _333
REMARK  151  A    between atoms: _336  and  _338
REMARK  152  A    between atoms: _338  and  _339
REMARK  153  A    between atoms: _338  and  _341
REMARK  154  A    between atoms: _341  and  _342
REMARK  155  A    between atoms: _345  and  _347
REMARK  156  A    between atoms: _347  and  _348
REMARK  157  A    between atoms: _347  and  _350
REMARK  158  A    between atoms: _350  and  _351
REMARK  159  A    between atoms: _356  and  _358
REMARK  160  A    between atoms: _358  and  _359
REMARK  161  A    between atoms: _358  and  _361
REMARK  162  A    between atoms: _361  and  _362
REMARK  163  A    between atoms: _365  and  _367
REMARK  164  A    between atoms: _367  and  _368
REMARK  165  A    between atoms: _367  and  _370
REMARK  166  A    between atoms: _370  and  _371
REMARK  167  A    between atoms: _371  and  _372
REMARK  168  A    between atoms: _372  and  _373
REMARK  169  A    between atoms: _373  and  _374
REMARK  170  A    between atoms: _378  and  _380
REMARK  171  A    between atoms: _380  and  _381
REMARK  172  A    between atoms: _380  and  _383
REMARK  173  A    between atoms: _383  and  _384
REMARK  174  A    between atoms: _386  and  _388
REMARK  175  A    between atoms: _388  and  _389
REMARK  176  A    between atoms: _388  and  _391
REMARK  177  A    between atoms: _391  and  _392
REMARK  178  A    between atoms: _395  and  _397
REMARK  179  A    between atoms: _397  and  _398
REMARK  180  A    between atoms: _397  and  _400
REMARK  181  A    between atoms: _400  and  _401
REMARK  182  A    between atoms: _403  and  _405
REMARK  183  A    between atoms: _405  and  _406
REMARK  184  A    between atoms: _405  and  _408
REMARK  185  A    between atoms: _408  and  _409
REMARK  186  A    between atoms: _412  and  _414
REMARK  187  A    between atoms: _414  and  _415
REMARK  188  A    between atoms: _414  and  _417
REMARK  189  A    between atoms: _417  and  _418
REMARK  190  A    between atoms: _421  and  _423
REMARK  191  A    between atoms: _423  and  _424
REMARK  192  A    between atoms: _423  and  _426
REMARK  193  A    between atoms: _426  and  _427
REMARK  194  A    between atoms: _430  and  _432
REMARK  195  A    between atoms: _432  and  _433
REMARK  196  A    between atoms: _432  and  _435
REMARK  197  A    between atoms: _435  and  _436
REMARK  198  A    between atoms: _439  and  _441
REMARK  199  A    between atoms: _441  and  _442
REMARK  200  A    between atoms: _441  and  _444
REMARK  201  A    between atoms: _444  and  _445
REMARK  202  A    between atoms: _447  and  _449
REMARK  203  A    between atoms: _449  and  _450
REMARK  204  A    between atoms: _449  and  _452
REMARK  205  A    between atoms: _452  and  _453
REMARK  206  A    between atoms: _456  and  _458
REMARK  207  A    between atoms: _458  and  _459
REMARK  208  A    between atoms: _458  and  _461
REMARK  209  A    between atoms: _461  and  _462
REMARK  210  A    between atoms: _468  and  _470
REMARK  211  A    between atoms: _470  and  _471
REMARK  212  A    between atoms: _473  and  _475
REMARK  213  A    between atoms: _475  and  _476
REMARK  214  A    between atoms: _475  and  _478
REMARK  215  A    between atoms: _478  and  _479
REMARK  216  A    between atoms: _479  and  _480
REMARK  217  A    between atoms: _482  and  _484
REMARK  218  A    between atoms: _484  and  _485
REMARK  219  A    between atoms: _484  and  _487
REMARK  220  A    between atoms: _487  and  _488
REMARK  221  A    between atoms: _488  and  _489
REMARK  222  A    between atoms: _489  and  _490
REMARK  223  A    between atoms: _499  and  _501
REMARK  224  A    between atoms: _501  and  _502
REMARK  225  A    between atoms: _501  and  _504
REMARK  226  A    between atoms: _504  and  _505
REMARK  227  A    between atoms: _505  and  _506
REMARK  228  A    between atoms: _511  and  _513
REMARK  229  A    between atoms: _513  and  _514
REMARK  230  A    between atoms: _513  and  _516
REMARK  231  A    between atoms: _516  and  _517
REMARK  232  A    between atoms: _517  and  _518
REMARK  233  A    between atoms: _518  and  _519
REMARK                            x       y       z     vdW  Elec       q    Type
REMARK                         _______ _______ _______ _____ _____    ______ ____
ROOT
ATOM      1  O   HOH     1      44.065  22.623   9.426  0.00  0.00    +0.000 OA
ENDROOT
TORSDOF 0
