REMARK  Name = ../refined-set-2016/1b7h/1b7h_pocket.pdb
REMARK  269 active torsions:
REMARK  status: ('A' for Active; 'I' for Inactive)
REMARK    1  A    between atoms: _1  and  _3
REMARK    2  A    between atoms: _3  and  _4
REMARK    3  A    between atoms: _6  and  _8
REMARK    4  A    between atoms: _8  and  _9
REMARK    5  A    between atoms: _8  and  _11
REMARK    6  A    between atoms: _11  and  _12
REMARK    7  A    between atoms: _14  and  _16
REMARK    8  A    between atoms: _16  and  _17
REMARK    9  A    between atoms: _16  and  _19
REMARK   10  A    between atoms: _19  and  _20
REMARK   11  A    between atoms: _20  and  _21
REMARK   12  A    between atoms: _26  and  _28
REMARK   13  A    between atoms: _28  and  _29
REMARK   14  A    between atoms: _28  and  _31
REMARK   15  A    between atoms: _31  and  _32
REMARK   16  A    between atoms: _35  and  _37
REMARK   17  A    between atoms: _37  and  _38
REMARK   18  A    between atoms: _37  and  _40
REMARK   19  A    between atoms: _40  and  _41
REMARK   20  A    between atoms: _41  and  _42
REMARK   21  A    between atoms: _45  and  _47
REMARK   22  A    between atoms: _47  and  _48
REMARK   23  A    between atoms: _50  and  _52
REMARK   24  A    between atoms: _52  and  _53
REMARK   25  A    between atoms: _52  and  _55
REMARK   26  A    between atoms: _59  and  _60
REMARK   27  A    between atoms: _65  and  _67
REMARK   28  A    between atoms: _67  and  _68
REMARK   29  A    between atoms: _67  and  _70
REMARK   30  A    between atoms: _70  and  _71
REMARK   31  A    between atoms: _71  and  _72
REMARK   32  A    between atoms: _75  and  _77
REMARK   33  A    between atoms: _77  and  _78
REMARK   34  A    between atoms: _77  and  _80
REMARK   35  A    between atoms: _80  and  _81
REMARK   36  A    between atoms: _83  and  _85
REMARK   37  A    between atoms: _85  and  _86
REMARK   38  A    between atoms: _85  and  _88
REMARK   39  A    between atoms: _88  and  _89
REMARK   40  A    between atoms: _94  and  _96
REMARK   41  A    between atoms: _96  and  _97
REMARK   42  A    between atoms: _96  and  _99
REMARK   43  A    between atoms: _99  and  _100
REMARK   44  A    between atoms: _100  and  _101
REMARK   45  A    between atoms: _101  and  _102
REMARK   46  A    between atoms: _112  and  _113
REMARK   47  A    between atoms: _118  and  _120
REMARK   48  A    between atoms: _120  and  _121
REMARK   49  A    between atoms: _120  and  _123
REMARK   50  A    between atoms: _123  and  _124
REMARK   51  A    between atoms: _129  and  _130
REMARK   52  A    between atoms: _132  and  _134
REMARK   53  A    between atoms: _134  and  _135
REMARK   54  A    between atoms: _134  and  _137
REMARK   55  A    between atoms: _137  and  _138
REMARK   56  A    between atoms: _143  and  _144
REMARK   57  A    between atoms: _146  and  _148
REMARK   58  A    between atoms: _148  and  _149
REMARK   59  A    between atoms: _148  and  _151
REMARK   60  A    between atoms: _154  and  _156
REMARK   61  A    between atoms: _156  and  _157
REMARK   62  A    between atoms: _156  and  _159
REMARK   63  A    between atoms: _159  and  _160
REMARK   64  A    between atoms: _166  and  _167
REMARK   65  A    between atoms: _172  and  _174
REMARK   66  A    between atoms: _174  and  _175
REMARK   67  A    between atoms: _174  and  _177
REMARK   68  A    between atoms: _177  and  _178
REMARK   69  A    between atoms: _180  and  _182
REMARK   70  A    between atoms: _182  and  _183
REMARK   71  A    between atoms: _182  and  _185
REMARK   72  A    between atoms: _185  and  _186
REMARK   73  A    between atoms: _191  and  _192
REMARK   74  A    between atoms: _194  and  _196
REMARK   75  A    between atoms: _196  and  _197
REMARK   76  A    between atoms: _196  and  _199
REMARK   77  A    between atoms: _199  and  _200
REMARK   78  A    between atoms: _205  and  _207
REMARK   79  A    between atoms: _207  and  _208
REMARK   80  A    between atoms: _207  and  _210
REMARK   81  A    between atoms: _210  and  _211
REMARK   82  A    between atoms: _216  and  _218
REMARK   83  A    between atoms: _218  and  _219
REMARK   84  A    between atoms: _218  and  _221
REMARK   85  A    between atoms: _221  and  _222
REMARK   86  A    between atoms: _222  and  _223
REMARK   87  A    between atoms: _225  and  _227
REMARK   88  A    between atoms: _227  and  _228
REMARK   89  A    between atoms: _227  and  _230
REMARK   90  A    between atoms: _230  and  _231
REMARK   91  A    between atoms: _236  and  _237
REMARK   92  A    between atoms: _239  and  _241
REMARK   93  A    between atoms: _241  and  _242
REMARK   94  A    between atoms: _241  and  _244
REMARK   95  A    between atoms: _244  and  _245
REMARK   96  A    between atoms: _248  and  _250
REMARK   97  A    between atoms: _250  and  _251
REMARK   98  A    between atoms: _250  and  _253
REMARK   99  A    between atoms: _253  and  _254
REMARK  100  A    between atoms: _254  and  _484
REMARK  101  A    between atoms: _255  and  _257
REMARK  102  A    between atoms: _257  and  _258
REMARK  103  A    between atoms: _257  and  _260
REMARK  104  A    between atoms: _260  and  _261
REMARK  105  A    between atoms: _264  and  _266
REMARK  106  A    between atoms: _266  and  _267
REMARK  107  A    between atoms: _266  and  _269
REMARK  108  A    between atoms: _269  and  _270
REMARK  109  A    between atoms: _275  and  _276
REMARK  110  A    between atoms: _278  and  _280
REMARK  111  A    between atoms: _280  and  _281
REMARK  112  A    between atoms: _280  and  _283
REMARK  113  A    between atoms: _283  and  _284
REMARK  114  A    between atoms: _289  and  _290
REMARK  115  A    between atoms: _292  and  _294
REMARK  116  A    between atoms: _294  and  _295
REMARK  117  A    between atoms: _294  and  _297
REMARK  118  A    between atoms: _297  and  _298
REMARK  119  A    between atoms: _298  and  _299
REMARK  120  A    between atoms: _302  and  _304
REMARK  121  A    between atoms: _304  and  _305
REMARK  122  A    between atoms: _304  and  _307
REMARK  123  A    between atoms: _307  and  _308
REMARK  124  A    between atoms: _308  and  _309
REMARK  125  A    between atoms: _309  and  _310
REMARK  126  A    between atoms: _310  and  _311
REMARK  127  A    between atoms: _315  and  _317
REMARK  128  A    between atoms: _317  and  _318
REMARK  129  A    between atoms: _317  and  _320
REMARK  130  A    between atoms: _320  and  _321
REMARK  131  A    between atoms: _326  and  _327
REMARK  132  A    between atoms: _329  and  _331
REMARK  133  A    between atoms: _331  and  _332
REMARK  134  A    between atoms: _331  and  _334
REMARK  135  A    between atoms: _334  and  _335
REMARK  136  A    between atoms: _340  and  _342
REMARK  137  A    between atoms: _342  and  _343
REMARK  138  A    between atoms: _342  and  _345
REMARK  139  A    between atoms: _345  and  _346
REMARK  140  A    between atoms: _349  and  _351
REMARK  141  A    between atoms: _351  and  _352
REMARK  142  A    between atoms: _351  and  _354
REMARK  143  A    between atoms: _354  and  _355
REMARK  144  A    between atoms: _360  and  _362
REMARK  145  A    between atoms: _362  and  _363
REMARK  146  A    between atoms: _362  and  _365
REMARK  147  A    between atoms: _365  and  _366
REMARK  148  A    between atoms: _376  and  _378
REMARK  149  A    between atoms: _378  and  _379
REMARK  150  A    between atoms: _378  and  _381
REMARK  151  A    between atoms: _381  and  _382
REMARK  152  A    between atoms: _388  and  _390
REMARK  153  A    between atoms: _390  and  _391
REMARK  154  A    between atoms: _390  and  _393
REMARK  155  A    between atoms: _393  and  _394
REMARK  156  A    between atoms: _397  and  _399
REMARK  157  A    between atoms: _399  and  _400
REMARK  158  A    between atoms: _399  and  _402
REMARK  159  A    between atoms: _402  and  _403
REMARK  160  A    between atoms: _406  and  _408
REMARK  161  A    between atoms: _408  and  _409
REMARK  162  A    between atoms: _408  and  _411
REMARK  163  A    between atoms: _411  and  _412
REMARK  164  A    between atoms: _412  and  _413
REMARK  165  A    between atoms: _413  and  _414
REMARK  166  A    between atoms: _423  and  _425
REMARK  167  A    between atoms: _425  and  _426
REMARK  168  A    between atoms: _425  and  _428
REMARK  169  A    between atoms: _428  and  _429
REMARK  170  A    between atoms: _434  and  _436
REMARK  171  A    between atoms: _436  and  _437
REMARK  172  A    between atoms: _436  and  _439
REMARK  173  A    between atoms: _439  and  _440
REMARK  174  A    between atoms: _440  and  _441
REMARK  175  A    between atoms: _441  and  _442
REMARK  176  A    between atoms: _451  and  _453
REMARK  177  A    between atoms: _453  and  _454
REMARK  178  A    between atoms: _457  and  _459
REMARK  179  A    between atoms: _459  and  _460
REMARK  180  A    between atoms: _462  and  _464
REMARK  181  A    between atoms: _464  and  _465
REMARK  182  A    between atoms: _464  and  _467
REMARK  183  A    between atoms: _467  and  _468
REMARK  184  A    between atoms: _478  and  _480
REMARK  185  A    between atoms: _480  and  _481
REMARK  186  A    between atoms: _480  and  _483
REMARK  187  A    between atoms: _483  and  _484
REMARK  188  A    between atoms: _485  and  _487
REMARK  189  A    between atoms: _487  and  _488
REMARK  190  A    between atoms: _491  and  _493
REMARK  191  A    between atoms: _493  and  _494
REMARK  192  A    between atoms: _493  and  _496
REMARK  193  A    between atoms: _496  and  _497
REMARK  194  A    between atoms: _500  and  _502
REMARK  195  A    between atoms: _502  and  _503
REMARK  196  A    between atoms: _502  and  _505
REMARK  197  A    between atoms: _505  and  _506
REMARK  198  A    between atoms: _511  and  _512
REMARK  199  A    between atoms: _514  and  _516
REMARK  200  A    between atoms: _516  and  _517
REMARK  201  A    between atoms: _516  and  _519
REMARK  202  A    between atoms: _519  and  _520
REMARK  203  A    between atoms: _522  and  _524
REMARK  204  A    between atoms: _524  and  _525
REMARK  205  A    between atoms: _524  and  _527
REMARK  206  A    between atoms: _527  and  _528
REMARK  207  A    between atoms: _534  and  _536
REMARK  208  A    between atoms: _536  and  _537
REMARK  209  A    between atoms: _536  and  _539
REMARK  210  A    between atoms: _539  and  _540
REMARK  211  A    between atoms: _543  and  _545
REMARK  212  A    between atoms: _545  and  _546
REMARK  213  A    between atoms: _545  and  _548
REMARK  214  A    between atoms: _548  and  _549
REMARK  215  A    between atoms: _551  and  _553
REMARK  216  A    between atoms: _553  and  _554
REMARK  217  A    between atoms: _553  and  _556
REMARK  218  A    between atoms: _556  and  _557
REMARK  219  A    between atoms: _562  and  _564
REMARK  220  A    between atoms: _564  and  _565
REMARK  221  A    between atoms: _564  and  _567
REMARK  222  A    between atoms: _567  and  _568
REMARK  223  A    between atoms: _573  and  _575
REMARK  224  A    between atoms: _575  and  _576
REMARK  225  A    between atoms: _575  and  _578
REMARK  226  A    between atoms: _578  and  _579
REMARK  227  A    between atoms: _582  and  _584
REMARK  228  A    between atoms: _584  and  _585
REMARK  229  A    between atoms: _588  and  _590
REMARK  230  A    between atoms: _590  and  _591
REMARK  231  A    between atoms: _590  and  _593
REMARK  232  A    between atoms: _593  and  _594
REMARK  233  A    between atoms: _599  and  _600
REMARK  234  A    between atoms: _602  and  _604
REMARK  235  A    between atoms: _604  and  _605
REMARK  236  A    between atoms: _604  and  _607
REMARK  237  A    between atoms: _607  and  _608
REMARK  238  A    between atoms: _613  and  _614
REMARK  239  A    between atoms: _616  and  _618
REMARK  240  A    between atoms: _618  and  _619
REMARK  241  A    between atoms: _618  and  _621
REMARK  242  A    between atoms: _624  and  _626
REMARK  243  A    between atoms: _626  and  _627
REMARK  244  A    between atoms: _626  and  _629
REMARK  245  A    between atoms: _629  and  _630
REMARK  246  A    between atoms: _635  and  _637
REMARK  247  A    between atoms: _637  and  _638
REMARK  248  A    between atoms: _641  and  _643
REMARK  249  A    between atoms: _643  and  _644
REMARK  250  A    between atoms: _643  and  _646
REMARK  251  A    between atoms: _646  and  _647
REMARK  252  A    between atoms: _647  and  _648
REMARK  253  A    between atoms: _648  and  _649
REMARK  254  A    between atoms: _658  and  _660
REMARK  255  A    between atoms: _660  and  _661
REMARK  256  A    between atoms: _660  and  _663
REMARK  257  A    between atoms: _663  and  _664
REMARK  258  A    between atoms: _667  and  _669
REMARK  259  A    between atoms: _669  and  _670
REMARK  260  A    between atoms: _669  and  _672
REMARK  261  A    between atoms: _672  and  _673
REMARK  262  A    between atoms: _676  and  _678
REMARK  263  A    between atoms: _678  and  _679
REMARK  264  A    between atoms: _678  and  _681
REMARK  265  A    between atoms: _681  and  _682
REMARK  266  A    between atoms: _687  and  _689
REMARK  267  A    between atoms: _689  and  _690
REMARK  268  A    between atoms: _689  and  _692
REMARK  269  A    between atoms: _692  and  _693
REMARK                            x       y       z     vdW  Elec       q    Type
REMARK                         _______ _______ _______ _____ _____    ______ ____
ROOT
ATOM      1  C   GLY A   1      35.870  45.500  20.468  0.00  0.00    +0.240 C 
ATOM      2  O   GLY A   1      35.537  46.087  21.518  0.00  0.00    -0.274 OA
ATOM      3  N   SER A   2      37.038  45.740  19.911  0.00  0.00    -0.296 N 
ATOM      4  H   SER A   2      37.267  45.191  19.058  0.00  0.00    +0.150 HD
ENDROOT
BRANCH   1   5
ATOM      5  CA  GLY A   1      34.909  44.463  19.958  0.00  0.00    +0.169 C 
BRANCH   5   6
ATOM      6  N   GLY A   1      34.687  44.374  18.523  0.00  0.00    -0.236 NA
ATOM      7  H   GLY A   1      33.827  44.793  18.116  0.00  0.00    +0.142 HD
ENDBRANCH   5   6
ENDBRANCH   1   5
BRANCH   3   8
ATOM      8  CA  SER A   2      38.018  46.666  20.348  0.00  0.00    +0.166 C 
BRANCH   8   9
ATOM      9  C   SER A   2      39.017  46.874  19.245  0.00  0.00    +0.229 C 
ATOM     10  O   SER A   2      38.914  46.176  18.235  0.00  0.00    -0.286 OA
ENDBRANCH   8   9
BRANCH   8  11
ATOM     11  CB  SER A   2      38.745  46.152  21.626  0.00  0.00    +0.165 C 
BRANCH  11  12
ATOM     12  OG  SER A   2      39.126  44.792  21.349  0.00  0.00    -0.380 OA
ATOM     13  H   SER A   2      38.316  44.256  21.159  0.00  0.00    +0.211 HD
ENDBRANCH  11  12
ENDBRANCH   8  11
ENDBRANCH   3   8
TORSDOF 6
REMARK  Name = ../refined-set-2016/1b7h/1b7h_pocket.pdb
REMARK  269 active torsions:
REMARK  status: ('A' for Active; 'I' for Inactive)
REMARK    1  A    between atoms: _1  and  _3
REMARK    2  A    between atoms: _3  and  _4
REMARK    3  A    between atoms: _6  and  _8
REMARK    4  A    between atoms: _8  and  _9
REMARK    5  A    between atoms: _8  and  _11
REMARK    6  A    between atoms: _11  and  _12
REMARK    7  A    between atoms: _14  and  _16
REMARK    8  A    between atoms: _16  and  _17
REMARK    9  A    between atoms: _16  and  _19
REMARK   10  A    between atoms: _19  and  _20
REMARK   11  A    between atoms: _20  and  _21
REMARK   12  A    between atoms: _26  and  _28
REMARK   13  A    between atoms: _28  and  _29
REMARK   14  A    between atoms: _28  and  _31
REMARK   15  A    between atoms: _31  and  _32
REMARK   16  A    between atoms: _35  and  _37
REMARK   17  A    between atoms: _37  and  _38
REMARK   18  A    between atoms: _37  and  _40
REMARK   19  A    between atoms: _40  and  _41
REMARK   20  A    between atoms: _41  and  _42
REMARK   21  A    between atoms: _45  and  _47
REMARK   22  A    between atoms: _47  and  _48
REMARK   23  A    between atoms: _50  and  _52
REMARK   24  A    between atoms: _52  and  _53
REMARK   25  A    between atoms: _52  and  _55
REMARK   26  A    between atoms: _59  and  _60
REMARK   27  A    between atoms: _65  and  _67
REMARK   28  A    between atoms: _67  and  _68
REMARK   29  A    between atoms: _67  and  _70
REMARK   30  A    between atoms: _70  and  _71
REMARK   31  A    between atoms: _71  and  _72
REMARK   32  A    between atoms: _75  and  _77
REMARK   33  A    between atoms: _77  and  _78
REMARK   34  A    between atoms: _77  and  _80
REMARK   35  A    between atoms: _80  and  _81
REMARK   36  A    between atoms: _83  and  _85
REMARK   37  A    between atoms: _85  and  _86
REMARK   38  A    between atoms: _85  and  _88
REMARK   39  A    between atoms: _88  and  _89
REMARK   40  A    between atoms: _94  and  _96
REMARK   41  A    between atoms: _96  and  _97
REMARK   42  A    between atoms: _96  and  _99
REMARK   43  A    between atoms: _99  and  _100
REMARK   44  A    between atoms: _100  and  _101
REMARK   45  A    between atoms: _101  and  _102
REMARK   46  A    between atoms: _112  and  _113
REMARK   47  A    between atoms: _118  and  _120
REMARK   48  A    between atoms: _120  and  _121
REMARK   49  A    between atoms: _120  and  _123
REMARK   50  A    between atoms: _123  and  _124
REMARK   51  A    between atoms: _129  and  _130
REMARK   52  A    between atoms: _132  and  _134
REMARK   53  A    between atoms: _134  and  _135
REMARK   54  A    between atoms: _134  and  _137
REMARK   55  A    between atoms: _137  and  _138
REMARK   56  A    between atoms: _143  and  _144
REMARK   57  A    between atoms: _146  and  _148
REMARK   58  A    between atoms: _148  and  _149
REMARK   59  A    between atoms: _148  and  _151
REMARK   60  A    between atoms: _154  and  _156
REMARK   61  A    between atoms: _156  and  _157
REMARK   62  A    between atoms: _156  and  _159
REMARK   63  A    between atoms: _159  and  _160
REMARK   64  A    between atoms: _166  and  _167
REMARK   65  A    between atoms: _172  and  _174
REMARK   66  A    between atoms: _174  and  _175
REMARK   67  A    between atoms: _174  and  _177
REMARK   68  A    between atoms: _177  and  _178
REMARK   69  A    between atoms: _180  and  _182
REMARK   70  A    between atoms: _182  and  _183
REMARK   71  A    between atoms: _182  and  _185
REMARK   72  A    between atoms: _185  and  _186
REMARK   73  A    between atoms: _191  and  _192
REMARK   74  A    between atoms: _194  and  _196
REMARK   75  A    between atoms: _196  and  _197
REMARK   76  A    between atoms: _196  and  _199
REMARK   77  A    between atoms: _199  and  _200
REMARK   78  A    between atoms: _205  and  _207
REMARK   79  A    between atoms: _207  and  _208
REMARK   80  A    between atoms: _207  and  _210
REMARK   81  A    between atoms: _210  and  _211
REMARK   82  A    between atoms: _216  and  _218
REMARK   83  A    between atoms: _218  and  _219
REMARK   84  A    between atoms: _218  and  _221
REMARK   85  A    between atoms: _221  and  _222
REMARK   86  A    between atoms: _222  and  _223
REMARK   87  A    between atoms: _225  and  _227
REMARK   88  A    between atoms: _227  and  _228
REMARK   89  A    between atoms: _227  and  _230
REMARK   90  A    between atoms: _230  and  _231
REMARK   91  A    between atoms: _236  and  _237
REMARK   92  A    between atoms: _239  and  _241
REMARK   93  A    between atoms: _241  and  _242
REMARK   94  A    between atoms: _241  and  _244
REMARK   95  A    between atoms: _244  and  _245
REMARK   96  A    between atoms: _248  and  _250
REMARK   97  A    between atoms: _250  and  _251
REMARK   98  A    between atoms: _250  and  _253
REMARK   99  A    between atoms: _253  and  _254
REMARK  100  A    between atoms: _254  and  _484
REMARK  101  A    between atoms: _255  and  _257
REMARK  102  A    between atoms: _257  and  _258
REMARK  103  A    between atoms: _257  and  _260
REMARK  104  A    between atoms: _260  and  _261
REMARK  105  A    between atoms: _264  and  _266
REMARK  106  A    between atoms: _266  and  _267
REMARK  107  A    between atoms: _266  and  _269
REMARK  108  A    between atoms: _269  and  _270
REMARK  109  A    between atoms: _275  and  _276
REMARK  110  A    between atoms: _278  and  _280
REMARK  111  A    between atoms: _280  and  _281
REMARK  112  A    between atoms: _280  and  _283
REMARK  113  A    between atoms: _283  and  _284
REMARK  114  A    between atoms: _289  and  _290
REMARK  115  A    between atoms: _292  and  _294
REMARK  116  A    between atoms: _294  and  _295
REMARK  117  A    between atoms: _294  and  _297
REMARK  118  A    between atoms: _297  and  _298
REMARK  119  A    between atoms: _298  and  _299
REMARK  120  A    between atoms: _302  and  _304
REMARK  121  A    between atoms: _304  and  _305
REMARK  122  A    between atoms: _304  and  _307
REMARK  123  A    between atoms: _307  and  _308
REMARK  124  A    between atoms: _308  and  _309
REMARK  125  A    between atoms: _309  and  _310
REMARK  126  A    between atoms: _310  and  _311
REMARK  127  A    between atoms: _315  and  _317
REMARK  128  A    between atoms: _317  and  _318
REMARK  129  A    between atoms: _317  and  _320
REMARK  130  A    between atoms: _320  and  _321
REMARK  131  A    between atoms: _326  and  _327
REMARK  132  A    between atoms: _329  and  _331
REMARK  133  A    between atoms: _331  and  _332
REMARK  134  A    between atoms: _331  and  _334
REMARK  135  A    between atoms: _334  and  _335
REMARK  136  A    between atoms: _340  and  _342
REMARK  137  A    between atoms: _342  and  _343
REMARK  138  A    between atoms: _342  and  _345
REMARK  139  A    between atoms: _345  and  _346
REMARK  140  A    between atoms: _349  and  _351
REMARK  141  A    between atoms: _351  and  _352
REMARK  142  A    between atoms: _351  and  _354
REMARK  143  A    between atoms: _354  and  _355
REMARK  144  A    between atoms: _360  and  _362
REMARK  145  A    between atoms: _362  and  _363
REMARK  146  A    between atoms: _362  and  _365
REMARK  147  A    between atoms: _365  and  _366
REMARK  148  A    between atoms: _376  and  _378
REMARK  149  A    between atoms: _378  and  _379
REMARK  150  A    between atoms: _378  and  _381
REMARK  151  A    between atoms: _381  and  _382
REMARK  152  A    between atoms: _388  and  _390
REMARK  153  A    between atoms: _390  and  _391
REMARK  154  A    between atoms: _390  and  _393
REMARK  155  A    between atoms: _393  and  _394
REMARK  156  A    between atoms: _397  and  _399
REMARK  157  A    between atoms: _399  and  _400
REMARK  158  A    between atoms: _399  and  _402
REMARK  159  A    between atoms: _402  and  _403
REMARK  160  A    between atoms: _406  and  _408
REMARK  161  A    between atoms: _408  and  _409
REMARK  162  A    between atoms: _408  and  _411
REMARK  163  A    between atoms: _411  and  _412
REMARK  164  A    between atoms: _412  and  _413
REMARK  165  A    between atoms: _413  and  _414
REMARK  166  A    between atoms: _423  and  _425
REMARK  167  A    between atoms: _425  and  _426
REMARK  168  A    between atoms: _425  and  _428
REMARK  169  A    between atoms: _428  and  _429
REMARK  170  A    between atoms: _434  and  _436
REMARK  171  A    between atoms: _436  and  _437
REMARK  172  A    between atoms: _436  and  _439
REMARK  173  A    between atoms: _439  and  _440
REMARK  174  A    between atoms: _440  and  _441
REMARK  175  A    between atoms: _441  and  _442
REMARK  176  A    between atoms: _451  and  _453
REMARK  177  A    between atoms: _453  and  _454
REMARK  178  A    between atoms: _457  and  _459
REMARK  179  A    between atoms: _459  and  _460
REMARK  180  A    between atoms: _462  and  _464
REMARK  181  A    between atoms: _464  and  _465
REMARK  182  A    between atoms: _464  and  _467
REMARK  183  A    between atoms: _467  and  _468
REMARK  184  A    between atoms: _478  and  _480
REMARK  185  A    between atoms: _480  and  _481
REMARK  186  A    between atoms: _480  and  _483
REMARK  187  A    between atoms: _483  and  _484
REMARK  188  A    between atoms: _485  and  _487
REMARK  189  A    between atoms: _487  and  _488
REMARK  190  A    between atoms: _491  and  _493
REMARK  191  A    between atoms: _493  and  _494
REMARK  192  A    between atoms: _493  and  _496
REMARK  193  A    between atoms: _496  and  _497
REMARK  194  A    between atoms: _500  and  _502
REMARK  195  A    between atoms: _502  and  _503
REMARK  196  A    between atoms: _502  and  _505
REMARK  197  A    between atoms: _505  and  _506
REMARK  198  A    between atoms: _511  and  _512
REMARK  199  A    between atoms: _514  and  _516
REMARK  200  A    between atoms: _516  and  _517
REMARK  201  A    between atoms: _516  and  _519
REMARK  202  A    between atoms: _519  and  _520
REMARK  203  A    between atoms: _522  and  _524
REMARK  204  A    between atoms: _524  and  _525
REMARK  205  A    between atoms: _524  and  _527
REMARK  206  A    between atoms: _527  and  _528
REMARK  207  A    between atoms: _534  and  _536
REMARK  208  A    between atoms: _536  and  _537
REMARK  209  A    between atoms: _536  and  _539
REMARK  210  A    between atoms: _539  and  _540
REMARK  211  A    between atoms: _543  and  _545
REMARK  212  A    between atoms: _545  and  _546
REMARK  213  A    between atoms: _545  and  _548
REMARK  214  A    between atoms: _548  and  _549
REMARK  215  A    between atoms: _551  and  _553
REMARK  216  A    between atoms: _553  and  _554
REMARK  217  A    between atoms: _553  and  _556
REMARK  218  A    between atoms: _556  and  _557
REMARK  219  A    between atoms: _562  and  _564
REMARK  220  A    between atoms: _564  and  _565
REMARK  221  A    between atoms: _564  and  _567
REMARK  222  A    between atoms: _567  and  _568
REMARK  223  A    between atoms: _573  and  _575
REMARK  224  A    between atoms: _575  and  _576
REMARK  225  A    between atoms: _575  and  _578
REMARK  226  A    between atoms: _578  and  _579
REMARK  227  A    between atoms: _582  and  _584
REMARK  228  A    between atoms: _584  and  _585
REMARK  229  A    between atoms: _588  and  _590
REMARK  230  A    between atoms: _590  and  _591
REMARK  231  A    between atoms: _590  and  _593
REMARK  232  A    between atoms: _593  and  _594
REMARK  233  A    between atoms: _599  and  _600
REMARK  234  A    between atoms: _602  and  _604
REMARK  235  A    between atoms: _604  and  _605
REMARK  236  A    between atoms: _604  and  _607
REMARK  237  A    between atoms: _607  and  _608
REMARK  238  A    between atoms: _613  and  _614
REMARK  239  A    between atoms: _616  and  _618
REMARK  240  A    between atoms: _618  and  _619
REMARK  241  A    between atoms: _618  and  _621
REMARK  242  A    between atoms: _624  and  _626
REMARK  243  A    between atoms: _626  and  _627
REMARK  244  A    between atoms: _626  and  _629
REMARK  245  A    between atoms: _629  and  _630
REMARK  246  A    between atoms: _635  and  _637
REMARK  247  A    between atoms: _637  and  _638
REMARK  248  A    between atoms: _641  and  _643
REMARK  249  A    between atoms: _643  and  _644
REMARK  250  A    between atoms: _643  and  _646
REMARK  251  A    between atoms: _646  and  _647
REMARK  252  A    between atoms: _647  and  _648
REMARK  253  A    between atoms: _648  and  _649
REMARK  254  A    between atoms: _658  and  _660
REMARK  255  A    between atoms: _660  and  _661
REMARK  256  A    between atoms: _660  and  _663
REMARK  257  A    between atoms: _663  and  _664
REMARK  258  A    between atoms: _667  and  _669
REMARK  259  A    between atoms: _669  and  _670
REMARK  260  A    between atoms: _669  and  _672
REMARK  261  A    between atoms: _672  and  _673
REMARK  262  A    between atoms: _676  and  _678
REMARK  263  A    between atoms: _678  and  _679
REMARK  264  A    between atoms: _678  and  _681
REMARK  265  A    between atoms: _681  and  _682
REMARK  266  A    between atoms: _687  and  _689
REMARK  267  A    between atoms: _689  and  _690
REMARK  268  A    between atoms: _689  and  _692
REMARK  269  A    between atoms: _692  and  _693
REMARK                            x       y       z     vdW  Elec       q    Type
REMARK                         _______ _______ _______ _____ _____    ______ ____
ROOT
ATOM      1  CB  GLN A   1      47.163  43.563  20.135  0.00  0.00    +0.035 C 
ENDROOT
BRANCH   1   2
ATOM      2  CA  GLN A   1      46.639  44.902  19.529  0.00  0.00    +0.134 C 
BRANCH   2   3
ATOM      3  N   GLN A   1      45.329  44.623  18.986  0.00  0.00    -0.239 NA
ATOM      4  H   GLN A   1      44.913  43.674  19.081  0.00  0.00    +0.142 HD
ENDBRANCH   2   3
BRANCH   2   5
ATOM      5  C   GLN A   1      47.589  45.187  18.342  0.00  0.00    +0.224 C 
ATOM      6  O   GLN A   1      48.649  45.801  18.476  0.00  0.00    -0.287 OA
ENDBRANCH   2   5
ENDBRANCH   1   2
BRANCH   1   7
ATOM      7  CG  GLN A   1      46.696  43.150  21.486  0.00  0.00    +0.087 C 
BRANCH   7   8
ATOM      8  CD  GLN A   1      47.102  41.701  21.832  0.00  0.00    +0.219 C 
ATOM      9  NE2 GLN A   1      47.888  41.580  22.899  0.00  0.00    -0.329 N 
ATOM     10 HE21 GLN A   1      48.194  42.428  23.418  0.00  0.00    +0.145 HD
ATOM     11 HE22 GLN A   1      48.196  40.638  23.214  0.00  0.00    +0.145 HD
ATOM     12  OE1 GLN A   1      46.713  40.729  21.185  0.00  0.00    -0.275 OA
ENDBRANCH   7   8
ENDBRANCH   1   7
TORSDOF 5
REMARK  Name = ../refined-set-2016/1b7h/1b7h_pocket.pdb
REMARK  269 active torsions:
REMARK  status: ('A' for Active; 'I' for Inactive)
REMARK    1  A    between atoms: _1  and  _3
REMARK    2  A    between atoms: _3  and  _4
REMARK    3  A    between atoms: _6  and  _8
REMARK    4  A    between atoms: _8  and  _9
REMARK    5  A    between atoms: _8  and  _11
REMARK    6  A    between atoms: _11  and  _12
REMARK    7  A    between atoms: _14  and  _16
REMARK    8  A    between atoms: _16  and  _17
REMARK    9  A    between atoms: _16  and  _19
REMARK   10  A    between atoms: _19  and  _20
REMARK   11  A    between atoms: _20  and  _21
REMARK   12  A    between atoms: _26  and  _28
REMARK   13  A    between atoms: _28  and  _29
REMARK   14  A    between atoms: _28  and  _31
REMARK   15  A    between atoms: _31  and  _32
REMARK   16  A    between atoms: _35  and  _37
REMARK   17  A    between atoms: _37  and  _38
REMARK   18  A    between atoms: _37  and  _40
REMARK   19  A    between atoms: _40  and  _41
REMARK   20  A    between atoms: _41  and  _42
REMARK   21  A    between atoms: _45  and  _47
REMARK   22  A    between atoms: _47  and  _48
REMARK   23  A    between atoms: _50  and  _52
REMARK   24  A    between atoms: _52  and  _53
REMARK   25  A    between atoms: _52  and  _55
REMARK   26  A    between atoms: _59  and  _60
REMARK   27  A    between atoms: _65  and  _67
REMARK   28  A    between atoms: _67  and  _68
REMARK   29  A    between atoms: _67  and  _70
REMARK   30  A    between atoms: _70  and  _71
REMARK   31  A    between atoms: _71  and  _72
REMARK   32  A    between atoms: _75  and  _77
REMARK   33  A    between atoms: _77  and  _78
REMARK   34  A    between atoms: _77  and  _80
REMARK   35  A    between atoms: _80  and  _81
REMARK   36  A    between atoms: _83  and  _85
REMARK   37  A    between atoms: _85  and  _86
REMARK   38  A    between atoms: _85  and  _88
REMARK   39  A    between atoms: _88  and  _89
REMARK   40  A    between atoms: _94  and  _96
REMARK   41  A    between atoms: _96  and  _97
REMARK   42  A    between atoms: _96  and  _99
REMARK   43  A    between atoms: _99  and  _100
REMARK   44  A    between atoms: _100  and  _101
REMARK   45  A    between atoms: _101  and  _102
REMARK   46  A    between atoms: _112  and  _113
REMARK   47  A    between atoms: _118  and  _120
REMARK   48  A    between atoms: _120  and  _121
REMARK   49  A    between atoms: _120  and  _123
REMARK   50  A    between atoms: _123  and  _124
REMARK   51  A    between atoms: _129  and  _130
REMARK   52  A    between atoms: _132  and  _134
REMARK   53  A    between atoms: _134  and  _135
REMARK   54  A    between atoms: _134  and  _137
REMARK   55  A    between atoms: _137  and  _138
REMARK   56  A    between atoms: _143  and  _144
REMARK   57  A    between atoms: _146  and  _148
REMARK   58  A    between atoms: _148  and  _149
REMARK   59  A    between atoms: _148  and  _151
REMARK   60  A    between atoms: _154  and  _156
REMARK   61  A    between atoms: _156  and  _157
REMARK   62  A    between atoms: _156  and  _159
REMARK   63  A    between atoms: _159  and  _160
REMARK   64  A    between atoms: _166  and  _167
REMARK   65  A    between atoms: _172  and  _174
REMARK   66  A    between atoms: _174  and  _175
REMARK   67  A    between atoms: _174  and  _177
REMARK   68  A    between atoms: _177  and  _178
REMARK   69  A    between atoms: _180  and  _182
REMARK   70  A    between atoms: _182  and  _183
REMARK   71  A    between atoms: _182  and  _185
REMARK   72  A    between atoms: _185  and  _186
REMARK   73  A    between atoms: _191  and  _192
REMARK   74  A    between atoms: _194  and  _196
REMARK   75  A    between atoms: _196  and  _197
REMARK   76  A    between atoms: _196  and  _199
REMARK   77  A    between atoms: _199  and  _200
REMARK   78  A    between atoms: _205  and  _207
REMARK   79  A    between atoms: _207  and  _208
REMARK   80  A    between atoms: _207  and  _210
REMARK   81  A    between atoms: _210  and  _211
REMARK   82  A    between atoms: _216  and  _218
REMARK   83  A    between atoms: _218  and  _219
REMARK   84  A    between atoms: _218  and  _221
REMARK   85  A    between atoms: _221  and  _222
REMARK   86  A    between atoms: _222  and  _223
REMARK   87  A    between atoms: _225  and  _227
REMARK   88  A    between atoms: _227  and  _228
REMARK   89  A    between atoms: _227  and  _230
REMARK   90  A    between atoms: _230  and  _231
REMARK   91  A    between atoms: _236  and  _237
REMARK   92  A    between atoms: _239  and  _241
REMARK   93  A    between atoms: _241  and  _242
REMARK   94  A    between atoms: _241  and  _244
REMARK   95  A    between atoms: _244  and  _245
REMARK   96  A    between atoms: _248  and  _250
REMARK   97  A    between atoms: _250  and  _251
REMARK   98  A    between atoms: _250  and  _253
REMARK   99  A    between atoms: _253  and  _254
REMARK  100  A    between atoms: _254  and  _484
REMARK  101  A    between atoms: _255  and  _257
REMARK  102  A    between atoms: _257  and  _258
REMARK  103  A    between atoms: _257  and  _260
REMARK  104  A    between atoms: _260  and  _261
REMARK  105  A    between atoms: _264  and  _266
REMARK  106  A    between atoms: _266  and  _267
REMARK  107  A    between atoms: _266  and  _269
REMARK  108  A    between atoms: _269  and  _270
REMARK  109  A    between atoms: _275  and  _276
REMARK  110  A    between atoms: _278  and  _280
REMARK  111  A    between atoms: _280  and  _281
REMARK  112  A    between atoms: _280  and  _283
REMARK  113  A    between atoms: _283  and  _284
REMARK  114  A    between atoms: _289  and  _290
REMARK  115  A    between atoms: _292  and  _294
REMARK  116  A    between atoms: _294  and  _295
REMARK  117  A    between atoms: _294  and  _297
REMARK  118  A    between atoms: _297  and  _298
REMARK  119  A    between atoms: _298  and  _299
REMARK  120  A    between atoms: _302  and  _304
REMARK  121  A    between atoms: _304  and  _305
REMARK  122  A    between atoms: _304  and  _307
REMARK  123  A    between atoms: _307  and  _308
REMARK  124  A    between atoms: _308  and  _309
REMARK  125  A    between atoms: _309  and  _310
REMARK  126  A    between atoms: _310  and  _311
REMARK  127  A    between atoms: _315  and  _317
REMARK  128  A    between atoms: _317  and  _318
REMARK  129  A    between atoms: _317  and  _320
REMARK  130  A    between atoms: _320  and  _321
REMARK  131  A    between atoms: _326  and  _327
REMARK  132  A    between atoms: _329  and  _331
REMARK  133  A    between atoms: _331  and  _332
REMARK  134  A    between atoms: _331  and  _334
REMARK  135  A    between atoms: _334  and  _335
REMARK  136  A    between atoms: _340  and  _342
REMARK  137  A    between atoms: _342  and  _343
REMARK  138  A    between atoms: _342  and  _345
REMARK  139  A    between atoms: _345  and  _346
REMARK  140  A    between atoms: _349  and  _351
REMARK  141  A    between atoms: _351  and  _352
REMARK  142  A    between atoms: _351  and  _354
REMARK  143  A    between atoms: _354  and  _355
REMARK  144  A    between atoms: _360  and  _362
REMARK  145  A    between atoms: _362  and  _363
REMARK  146  A    between atoms: _362  and  _365
REMARK  147  A    between atoms: _365  and  _366
REMARK  148  A    between atoms: _376  and  _378
REMARK  149  A    between atoms: _378  and  _379
REMARK  150  A    between atoms: _378  and  _381
REMARK  151  A    between atoms: _381  and  _382
REMARK  152  A    between atoms: _388  and  _390
REMARK  153  A    between atoms: _390  and  _391
REMARK  154  A    between atoms: _390  and  _393
REMARK  155  A    between atoms: _393  and  _394
REMARK  156  A    between atoms: _397  and  _399
REMARK  157  A    between atoms: _399  and  _400
REMARK  158  A    between atoms: _399  and  _402
REMARK  159  A    between atoms: _402  and  _403
REMARK  160  A    between atoms: _406  and  _408
REMARK  161  A    between atoms: _408  and  _409
REMARK  162  A    between atoms: _408  and  _411
REMARK  163  A    between atoms: _411  and  _412
REMARK  164  A    between atoms: _412  and  _413
REMARK  165  A    between atoms: _413  and  _414
REMARK  166  A    between atoms: _423  and  _425
REMARK  167  A    between atoms: _425  and  _426
REMARK  168  A    between atoms: _425  and  _428
REMARK  169  A    between atoms: _428  and  _429
REMARK  170  A    between atoms: _434  and  _436
REMARK  171  A    between atoms: _436  and  _437
REMARK  172  A    between atoms: _436  and  _439
REMARK  173  A    between atoms: _439  and  _440
REMARK  174  A    between atoms: _440  and  _441
REMARK  175  A    between atoms: _441  and  _442
REMARK  176  A    between atoms: _451  and  _453
REMARK  177  A    between atoms: _453  and  _454
REMARK  178  A    between atoms: _457  and  _459
REMARK  179  A    between atoms: _459  and  _460
REMARK  180  A    between atoms: _462  and  _464
REMARK  181  A    between atoms: _464  and  _465
REMARK  182  A    between atoms: _464  and  _467
REMARK  183  A    between atoms: _467  and  _468
REMARK  184  A    between atoms: _478  and  _480
REMARK  185  A    between atoms: _480  and  _481
REMARK  186  A    between atoms: _480  and  _483
REMARK  187  A    between atoms: _483  and  _484
REMARK  188  A    between atoms: _485  and  _487
REMARK  189  A    between atoms: _487  and  _488
REMARK  190  A    between atoms: _491  and  _493
REMARK  191  A    between atoms: _493  and  _494
REMARK  192  A    between atoms: _493  and  _496
REMARK  193  A    between atoms: _496  and  _497
REMARK  194  A    between atoms: _500  and  _502
REMARK  195  A    between atoms: _502  and  _503
REMARK  196  A    between atoms: _502  and  _505
REMARK  197  A    between atoms: _505  and  _506
REMARK  198  A    between atoms: _511  and  _512
REMARK  199  A    between atoms: _514  and  _516
REMARK  200  A    between atoms: _516  and  _517
REMARK  201  A    between atoms: _516  and  _519
REMARK  202  A    between atoms: _519  and  _520
REMARK  203  A    between atoms: _522  and  _524
REMARK  204  A    between atoms: _524  and  _525
REMARK  205  A    between atoms: _524  and  _527
REMARK  206  A    between atoms: _527  and  _528
REMARK  207  A    between atoms: _534  and  _536
REMARK  208  A    between atoms: _536  and  _537
REMARK  209  A    between atoms: _536  and  _539
REMARK  210  A    between atoms: _539  and  _540
REMARK  211  A    between atoms: _543  and  _545
REMARK  212  A    between atoms: _545  and  _546
REMARK  213  A    between atoms: _545  and  _548
REMARK  214  A    between atoms: _548  and  _549
REMARK  215  A    between atoms: _551  and  _553
REMARK  216  A    between atoms: _553  and  _554
REMARK  217  A    between atoms: _553  and  _556
REMARK  218  A    between atoms: _556  and  _557
REMARK  219  A    between atoms: _562  and  _564
REMARK  220  A    between atoms: _564  and  _565
REMARK  221  A    between atoms: _564  and  _567
REMARK  222  A    between atoms: _567  and  _568
REMARK  223  A    between atoms: _573  and  _575
REMARK  224  A    between atoms: _575  and  _576
REMARK  225  A    between atoms: _575  and  _578
REMARK  226  A    between atoms: _578  and  _579
REMARK  227  A    between atoms: _582  and  _584
REMARK  228  A    between atoms: _584  and  _585
REMARK  229  A    between atoms: _588  and  _590
REMARK  230  A    between atoms: _590  and  _591
REMARK  231  A    between atoms: _590  and  _593
REMARK  232  A    between atoms: _593  and  _594
REMARK  233  A    between atoms: _599  and  _600
REMARK  234  A    between atoms: _602  and  _604
REMARK  235  A    between atoms: _604  and  _605
REMARK  236  A    between atoms: _604  and  _607
REMARK  237  A    between atoms: _607  and  _608
REMARK  238  A    between atoms: _613  and  _614
REMARK  239  A    between atoms: _616  and  _618
REMARK  240  A    between atoms: _618  and  _619
REMARK  241  A    between atoms: _618  and  _621
REMARK  242  A    between atoms: _624  and  _626
REMARK  243  A    between atoms: _626  and  _627
REMARK  244  A    between atoms: _626  and  _629
REMARK  245  A    between atoms: _629  and  _630
REMARK  246  A    between atoms: _635  and  _637
REMARK  247  A    between atoms: _637  and  _638
REMARK  248  A    between atoms: _641  and  _643
REMARK  249  A    between atoms: _643  and  _644
REMARK  250  A    between atoms: _643  and  _646
REMARK  251  A    between atoms: _646  and  _647
REMARK  252  A    between atoms: _647  and  _648
REMARK  253  A    between atoms: _648  and  _649
REMARK  254  A    between atoms: _658  and  _660
REMARK  255  A    between atoms: _660  and  _661
REMARK  256  A    between atoms: _660  and  _663
REMARK  257  A    between atoms: _663  and  _664
REMARK  258  A    between atoms: _667  and  _669
REMARK  259  A    between atoms: _669  and  _670
REMARK  260  A    between atoms: _669  and  _672
REMARK  261  A    between atoms: _672  and  _673
REMARK  262  A    between atoms: _676  and  _678
REMARK  263  A    between atoms: _678  and  _679
REMARK  264  A    between atoms: _678  and  _681
REMARK  265  A    between atoms: _681  and  _682
REMARK  266  A    between atoms: _687  and  _689
REMARK  267  A    between atoms: _689  and  _690
REMARK  268  A    between atoms: _689  and  _692
REMARK  269  A    between atoms: _692  and  _693
REMARK                            x       y       z     vdW  Elec       q    Type
REMARK                         _______ _______ _______ _____ _____    ______ ____
ROOT
ATOM      1  C   VAL A   4      39.490  38.282  18.555  0.00  0.00    +0.244 C 
ATOM      2  N   PRO A   5      39.512  39.542  18.878  0.00  0.00    -0.272 N 
ATOM      3  CD  PRO A   5      39.437  40.061  20.248  0.00  0.00    +0.094 C 
ATOM      4  CG  PRO A   5      38.910  41.510  20.024  0.00  0.00    +0.024 C 
ATOM      5  CB  PRO A   5      39.628  41.979  18.744  0.00  0.00    +0.031 C 
ATOM      6  CA  PRO A   5      39.427  40.656  17.911  0.00  0.00    +0.152 C 
ATOM      7  O   VAL A   4      39.456  37.937  17.369  0.00  0.00    -0.273 OA
ENDROOT
BRANCH   6   8
ATOM      8  C   PRO A   5      40.574  40.525  16.917  0.00  0.00    +0.241 C 
ATOM      9  N   GLU A   6      41.798  40.391  17.429  0.00  0.00    -0.297 N 
ATOM     10  H   GLU A   6      41.912  40.419  18.462  0.00  0.00    +0.150 HD
ATOM     11  O   PRO A   5      40.440  40.571  15.702  0.00  0.00    -0.273 OA
BRANCH   9  12
ATOM     12  CA  GLU A   6      42.974  40.209  16.607  0.00  0.00    +0.149 C 
BRANCH  12  13
ATOM     13  C   GLU A   6      42.822  38.985  15.713  0.00  0.00    +0.241 C 
ATOM     14  N   SER A   7      42.306  37.846  16.189  0.00  0.00    -0.295 N 
ATOM     15  H   SER A   7      41.923  37.813  17.155  0.00  0.00    +0.150 HD
ATOM     16  O   GLU A   6      43.203  39.068  14.559  0.00  0.00    -0.273 OA
BRANCH  14  17
ATOM     17  CA  SER A   7      42.280  36.646  15.351  0.00  0.00    +0.178 C 
BRANCH  17  18
ATOM     18  C   SER A   7      41.134  36.723  14.332  0.00  0.00    +0.243 C 
ATOM     19  N   ASN A   8      40.100  37.529  14.608  0.00  0.00    -0.298 N 
ATOM     20  H   ASN A   8      40.045  38.036  15.514  0.00  0.00    +0.150 HD
ATOM     21  O   SER A   7      41.277  36.152  13.266  0.00  0.00    -0.273 OA
BRANCH  19  22
ATOM     22  CA  ASN A   8      39.041  37.678  13.592  0.00  0.00    +0.146 C 
BRANCH  22  23
ATOM     23  C   ASN A   8      39.615  38.338  12.344  0.00  0.00    +0.227 C 
ATOM     24  O   ASN A   8      39.389  37.844  11.215  0.00  0.00    -0.286 OA
ENDBRANCH  22  23
BRANCH  22  25
ATOM     25  CB  ASN A   8      37.904  38.504  14.164  0.00  0.00    +0.112 C 
BRANCH  25  26
ATOM     26  CG  ASN A   8      37.093  37.797  15.217  0.00  0.00    +0.222 C 
ATOM     27  ND2 ASN A   8      36.447  38.683  16.008  0.00  0.00    -0.329 N 
ATOM     28 HD21 ASN A   8      35.777  38.345  16.728  0.00  0.00    +0.145 HD
ATOM     29 HD22 ASN A   8      36.620  39.702  15.896  0.00  0.00    +0.145 HD
ATOM     30  OD1 ASN A   8      36.935  36.570  15.296  0.00  0.00    -0.275 OA
ENDBRANCH  25  26
ENDBRANCH  22  25
ENDBRANCH  19  22
ENDBRANCH  17  18
BRANCH  17  31
ATOM     31  CB  SER A   7      42.120  35.387  16.205  0.00  0.00    +0.166 C 
BRANCH  31  32
ATOM     32  OG  SER A   7      43.143  35.259  17.191  0.00  0.00    -0.380 OA
ATOM     33  H   SER A   7      43.117  36.042  17.796  0.00  0.00    +0.211 HD
ENDBRANCH  31  32
ENDBRANCH  17  31
ENDBRANCH  14  17
ENDBRANCH  12  13
BRANCH  12  34
ATOM     34  CB  GLU A   6      44.252  40.044  17.472  0.00  0.00    +0.041 C 
BRANCH  34  35
ATOM     35  CG  GLU A   6      44.635  41.206  18.345  0.00  0.00    +0.116 C 
BRANCH  35  36
ATOM     36  CD  GLU A   6      43.723  41.506  19.528  0.00  0.00    +0.365 C 
ATOM     37  OE2 GLU A   6      43.700  42.641  20.031  0.00  0.00    -0.246 OA
ATOM     38  OE1 GLU A   6      43.024  40.557  19.939  0.00  0.00    -0.246 OA
ENDBRANCH  35  36
ENDBRANCH  34  35
ENDBRANCH  12  34
ENDBRANCH   9  12
ENDBRANCH   6   8
BRANCH   1  39
ATOM     39  CA  VAL A   4      39.579  37.197  19.607  0.00  0.00    +0.149 C 
BRANCH  39  41
ATOM     40  C   GLY A   3      41.907  37.450  20.175  0.00  0.00    +0.243 C 
ATOM     41  N   VAL A   4      40.643  37.461  20.564  0.00  0.00    -0.297 N 
ATOM     42  H   VAL A   4      40.409  37.659  21.558  0.00  0.00    +0.150 HD
ATOM     43  O   GLY A   3      42.292  37.315  19.005  0.00  0.00    -0.273 OA
BRANCH  40  44
ATOM     44  CA  GLY A   3      42.821  37.809  21.324  0.00  0.00    +0.176 C 
BRANCH  44  47
ATOM     45  C   GLU A   2      44.979  36.831  21.477  0.00  0.00    +0.241 C 
ATOM     46  O   GLU A   2      44.509  35.923  22.161  0.00  0.00    -0.273 OA
ATOM     47  N   GLY A   3      44.236  37.826  20.970  0.00  0.00    -0.295 N 
ATOM     48  H   GLY A   3      44.644  38.564  20.362  0.00  0.00    +0.150 HD
BRANCH  45  49
ATOM     49  CA  GLU A   2      46.510  36.865  21.371  0.00  0.00    +0.149 C 
BRANCH  49  51
ATOM     50  C   ILE A   1      48.080  37.740  19.737  0.00  0.00    +0.238 C 
ATOM     51  N   GLU A   2      47.019  37.898  20.537  0.00  0.00    -0.297 N 
ATOM     52  H   GLU A   2      46.543  38.823  20.549  0.00  0.00    +0.150 HD
ATOM     53  O   ILE A   1      48.643  36.672  19.748  0.00  0.00    -0.274 OA
BRANCH  50  54
ATOM     54  CA  ILE A   1      48.483  38.868  18.808  0.00  0.00    +0.145 C 
BRANCH  54  55
ATOM     55  CB  ILE A   1      47.543  38.835  17.531  0.00  0.00    +0.025 C 
ATOM     56  CG2 ILE A   1      47.772  40.145  16.807  0.00  0.00    +0.002 C 
BRANCH  55  57
ATOM     57  CG1 ILE A   1      47.795  37.660  16.561  0.00  0.00    +0.002 C 
ATOM     58  CD1 ILE A   1      46.579  37.512  15.613  0.00  0.00    +0.000 C 
ENDBRANCH  55  57
ENDBRANCH  54  55
BRANCH  54  59
ATOM     59  N   ILE A   1      49.868  38.804  18.359  0.00  0.00    -0.238 NA
ATOM     60  H   ILE A   1      50.167  38.101  17.653  0.00  0.00    +0.142 HD
ENDBRANCH  54  59
ENDBRANCH  50  54
ENDBRANCH  49  51
BRANCH  49  61
ATOM     61  CB  GLU A   2      47.080  36.935  22.814  0.00  0.00    +0.041 C 
BRANCH  61  62
ATOM     62  CG  GLU A   2      46.796  38.234  23.599  0.00  0.00    +0.116 C 
BRANCH  62  63
ATOM     63  CD  GLU A   2      47.960  38.417  24.558  0.00  0.00    +0.365 C 
ATOM     64  OE2 GLU A   2      48.148  37.518  25.418  0.00  0.00    -0.246 OA
ATOM     65  OE1 GLU A   2      48.707  39.423  24.391  0.00  0.00    -0.246 OA
ENDBRANCH  62  63
ENDBRANCH  61  62
ENDBRANCH  49  61
ENDBRANCH  45  49
ENDBRANCH  44  47
ENDBRANCH  40  44
ENDBRANCH  39  41
BRANCH  39  66
ATOM     66  CB  VAL A   4      38.228  36.964  20.332  0.00  0.00    +0.027 C 
ATOM     67  CG2 VAL A   4      38.305  35.580  21.076  0.00  0.00    +0.002 C 
ATOM     68  CG1 VAL A   4      37.100  36.928  19.305  0.00  0.00    +0.002 C 
ENDBRANCH  39  66
ENDBRANCH   1  39
TORSDOF 28
REMARK  Name = ../refined-set-2016/1b7h/1b7h_pocket.pdb
REMARK  269 active torsions:
REMARK  status: ('A' for Active; 'I' for Inactive)
REMARK    1  A    between atoms: _1  and  _3
REMARK    2  A    between atoms: _3  and  _4
REMARK    3  A    between atoms: _6  and  _8
REMARK    4  A    between atoms: _8  and  _9
REMARK    5  A    between atoms: _8  and  _11
REMARK    6  A    between atoms: _11  and  _12
REMARK    7  A    between atoms: _14  and  _16
REMARK    8  A    between atoms: _16  and  _17
REMARK    9  A    between atoms: _16  and  _19
REMARK   10  A    between atoms: _19  and  _20
REMARK   11  A    between atoms: _20  and  _21
REMARK   12  A    between atoms: _26  and  _28
REMARK   13  A    between atoms: _28  and  _29
REMARK   14  A    between atoms: _28  and  _31
REMARK   15  A    between atoms: _31  and  _32
REMARK   16  A    between atoms: _35  and  _37
REMARK   17  A    between atoms: _37  and  _38
REMARK   18  A    between atoms: _37  and  _40
REMARK   19  A    between atoms: _40  and  _41
REMARK   20  A    between atoms: _41  and  _42
REMARK   21  A    between atoms: _45  and  _47
REMARK   22  A    between atoms: _47  and  _48
REMARK   23  A    between atoms: _50  and  _52
REMARK   24  A    between atoms: _52  and  _53
REMARK   25  A    between atoms: _52  and  _55
REMARK   26  A    between atoms: _59  and  _60
REMARK   27  A    between atoms: _65  and  _67
REMARK   28  A    between atoms: _67  and  _68
REMARK   29  A    between atoms: _67  and  _70
REMARK   30  A    between atoms: _70  and  _71
REMARK   31  A    between atoms: _71  and  _72
REMARK   32  A    between atoms: _75  and  _77
REMARK   33  A    between atoms: _77  and  _78
REMARK   34  A    between atoms: _77  and  _80
REMARK   35  A    between atoms: _80  and  _81
REMARK   36  A    between atoms: _83  and  _85
REMARK   37  A    between atoms: _85  and  _86
REMARK   38  A    between atoms: _85  and  _88
REMARK   39  A    between atoms: _88  and  _89
REMARK   40  A    between atoms: _94  and  _96
REMARK   41  A    between atoms: _96  and  _97
REMARK   42  A    between atoms: _96  and  _99
REMARK   43  A    between atoms: _99  and  _100
REMARK   44  A    between atoms: _100  and  _101
REMARK   45  A    between atoms: _101  and  _102
REMARK   46  A    between atoms: _112  and  _113
REMARK   47  A    between atoms: _118  and  _120
REMARK   48  A    between atoms: _120  and  _121
REMARK   49  A    between atoms: _120  and  _123
REMARK   50  A    between atoms: _123  and  _124
REMARK   51  A    between atoms: _129  and  _130
REMARK   52  A    between atoms: _132  and  _134
REMARK   53  A    between atoms: _134  and  _135
REMARK   54  A    between atoms: _134  and  _137
REMARK   55  A    between atoms: _137  and  _138
REMARK   56  A    between atoms: _143  and  _144
REMARK   57  A    between atoms: _146  and  _148
REMARK   58  A    between atoms: _148  and  _149
REMARK   59  A    between atoms: _148  and  _151
REMARK   60  A    between atoms: _154  and  _156
REMARK   61  A    between atoms: _156  and  _157
REMARK   62  A    between atoms: _156  and  _159
REMARK   63  A    between atoms: _159  and  _160
REMARK   64  A    between atoms: _166  and  _167
REMARK   65  A    between atoms: _172  and  _174
REMARK   66  A    between atoms: _174  and  _175
REMARK   67  A    between atoms: _174  and  _177
REMARK   68  A    between atoms: _177  and  _178
REMARK   69  A    between atoms: _180  and  _182
REMARK   70  A    between atoms: _182  and  _183
REMARK   71  A    between atoms: _182  and  _185
REMARK   72  A    between atoms: _185  and  _186
REMARK   73  A    between atoms: _191  and  _192
REMARK   74  A    between atoms: _194  and  _196
REMARK   75  A    between atoms: _196  and  _197
REMARK   76  A    between atoms: _196  and  _199
REMARK   77  A    between atoms: _199  and  _200
REMARK   78  A    between atoms: _205  and  _207
REMARK   79  A    between atoms: _207  and  _208
REMARK   80  A    between atoms: _207  and  _210
REMARK   81  A    between atoms: _210  and  _211
REMARK   82  A    between atoms: _216  and  _218
REMARK   83  A    between atoms: _218  and  _219
REMARK   84  A    between atoms: _218  and  _221
REMARK   85  A    between atoms: _221  and  _222
REMARK   86  A    between atoms: _222  and  _223
REMARK   87  A    between atoms: _225  and  _227
REMARK   88  A    between atoms: _227  and  _228
REMARK   89  A    between atoms: _227  and  _230
REMARK   90  A    between atoms: _230  and  _231
REMARK   91  A    between atoms: _236  and  _237
REMARK   92  A    between atoms: _239  and  _241
REMARK   93  A    between atoms: _241  and  _242
REMARK   94  A    between atoms: _241  and  _244
REMARK   95  A    between atoms: _244  and  _245
REMARK   96  A    between atoms: _248  and  _250
REMARK   97  A    between atoms: _250  and  _251
REMARK   98  A    between atoms: _250  and  _253
REMARK   99  A    between atoms: _253  and  _254
REMARK  100  A    between atoms: _254  and  _484
REMARK  101  A    between atoms: _255  and  _257
REMARK  102  A    between atoms: _257  and  _258
REMARK  103  A    between atoms: _257  and  _260
REMARK  104  A    between atoms: _260  and  _261
REMARK  105  A    between atoms: _264  and  _266
REMARK  106  A    between atoms: _266  and  _267
REMARK  107  A    between atoms: _266  and  _269
REMARK  108  A    between atoms: _269  and  _270
REMARK  109  A    between atoms: _275  and  _276
REMARK  110  A    between atoms: _278  and  _280
REMARK  111  A    between atoms: _280  and  _281
REMARK  112  A    between atoms: _280  and  _283
REMARK  113  A    between atoms: _283  and  _284
REMARK  114  A    between atoms: _289  and  _290
REMARK  115  A    between atoms: _292  and  _294
REMARK  116  A    between atoms: _294  and  _295
REMARK  117  A    between atoms: _294  and  _297
REMARK  118  A    between atoms: _297  and  _298
REMARK  119  A    between atoms: _298  and  _299
REMARK  120  A    between atoms: _302  and  _304
REMARK  121  A    between atoms: _304  and  _305
REMARK  122  A    between atoms: _304  and  _307
REMARK  123  A    between atoms: _307  and  _308
REMARK  124  A    between atoms: _308  and  _309
REMARK  125  A    between atoms: _309  and  _310
REMARK  126  A    between atoms: _310  and  _311
REMARK  127  A    between atoms: _315  and  _317
REMARK  128  A    between atoms: _317  and  _318
REMARK  129  A    between atoms: _317  and  _320
REMARK  130  A    between atoms: _320  and  _321
REMARK  131  A    between atoms: _326  and  _327
REMARK  132  A    between atoms: _329  and  _331
REMARK  133  A    between atoms: _331  and  _332
REMARK  134  A    between atoms: _331  and  _334
REMARK  135  A    between atoms: _334  and  _335
REMARK  136  A    between atoms: _340  and  _342
REMARK  137  A    between atoms: _342  and  _343
REMARK  138  A    between atoms: _342  and  _345
REMARK  139  A    between atoms: _345  and  _346
REMARK  140  A    between atoms: _349  and  _351
REMARK  141  A    between atoms: _351  and  _352
REMARK  142  A    between atoms: _351  and  _354
REMARK  143  A    between atoms: _354  and  _355
REMARK  144  A    between atoms: _360  and  _362
REMARK  145  A    between atoms: _362  and  _363
REMARK  146  A    between atoms: _362  and  _365
REMARK  147  A    between atoms: _365  and  _366
REMARK  148  A    between atoms: _376  and  _378
REMARK  149  A    between atoms: _378  and  _379
REMARK  150  A    between atoms: _378  and  _381
REMARK  151  A    between atoms: _381  and  _382
REMARK  152  A    between atoms: _388  and  _390
REMARK  153  A    between atoms: _390  and  _391
REMARK  154  A    between atoms: _390  and  _393
REMARK  155  A    between atoms: _393  and  _394
REMARK  156  A    between atoms: _397  and  _399
REMARK  157  A    between atoms: _399  and  _400
REMARK  158  A    between atoms: _399  and  _402
REMARK  159  A    between atoms: _402  and  _403
REMARK  160  A    between atoms: _406  and  _408
REMARK  161  A    between atoms: _408  and  _409
REMARK  162  A    between atoms: _408  and  _411
REMARK  163  A    between atoms: _411  and  _412
REMARK  164  A    between atoms: _412  and  _413
REMARK  165  A    between atoms: _413  and  _414
REMARK  166  A    between atoms: _423  and  _425
REMARK  167  A    between atoms: _425  and  _426
REMARK  168  A    between atoms: _425  and  _428
REMARK  169  A    between atoms: _428  and  _429
REMARK  170  A    between atoms: _434  and  _436
REMARK  171  A    between atoms: _436  and  _437
REMARK  172  A    between atoms: _436  and  _439
REMARK  173  A    between atoms: _439  and  _440
REMARK  174  A    between atoms: _440  and  _441
REMARK  175  A    between atoms: _441  and  _442
REMARK  176  A    between atoms: _451  and  _453
REMARK  177  A    between atoms: _453  and  _454
REMARK  178  A    between atoms: _457  and  _459
REMARK  179  A    between atoms: _459  and  _460
REMARK  180  A    between atoms: _462  and  _464
REMARK  181  A    between atoms: _464  and  _465
REMARK  182  A    between atoms: _464  and  _467
REMARK  183  A    between atoms: _467  and  _468
REMARK  184  A    between atoms: _478  and  _480
REMARK  185  A    between atoms: _480  and  _481
REMARK  186  A    between atoms: _480  and  _483
REMARK  187  A    between atoms: _483  and  _484
REMARK  188  A    between atoms: _485  and  _487
REMARK  189  A    between atoms: _487  and  _488
REMARK  190  A    between atoms: _491  and  _493
REMARK  191  A    between atoms: _493  and  _494
REMARK  192  A    between atoms: _493  and  _496
REMARK  193  A    between atoms: _496  and  _497
REMARK  194  A    between atoms: _500  and  _502
REMARK  195  A    between atoms: _502  and  _503
REMARK  196  A    between atoms: _502  and  _505
REMARK  197  A    between atoms: _505  and  _506
REMARK  198  A    between atoms: _511  and  _512
REMARK  199  A    between atoms: _514  and  _516
REMARK  200  A    between atoms: _516  and  _517
REMARK  201  A    between atoms: _516  and  _519
REMARK  202  A    between atoms: _519  and  _520
REMARK  203  A    between atoms: _522  and  _524
REMARK  204  A    between atoms: _524  and  _525
REMARK  205  A    between atoms: _524  and  _527
REMARK  206  A    between atoms: _527  and  _528
REMARK  207  A    between atoms: _534  and  _536
REMARK  208  A    between atoms: _536  and  _537
REMARK  209  A    between atoms: _536  and  _539
REMARK  210  A    between atoms: _539  and  _540
REMARK  211  A    between atoms: _543  and  _545
REMARK  212  A    between atoms: _545  and  _546
REMARK  213  A    between atoms: _545  and  _548
REMARK  214  A    between atoms: _548  and  _549
REMARK  215  A    between atoms: _551  and  _553
REMARK  216  A    between atoms: _553  and  _554
REMARK  217  A    between atoms: _553  and  _556
REMARK  218  A    between atoms: _556  and  _557
REMARK  219  A    between atoms: _562  and  _564
REMARK  220  A    between atoms: _564  and  _565
REMARK  221  A    between atoms: _564  and  _567
REMARK  222  A    between atoms: _567  and  _568
REMARK  223  A    between atoms: _573  and  _575
REMARK  224  A    between atoms: _575  and  _576
REMARK  225  A    between atoms: _575  and  _578
REMARK  226  A    between atoms: _578  and  _579
REMARK  227  A    between atoms: _582  and  _584
REMARK  228  A    between atoms: _584  and  _585
REMARK  229  A    between atoms: _588  and  _590
REMARK  230  A    between atoms: _590  and  _591
REMARK  231  A    between atoms: _590  and  _593
REMARK  232  A    between atoms: _593  and  _594
REMARK  233  A    between atoms: _599  and  _600
REMARK  234  A    between atoms: _602  and  _604
REMARK  235  A    between atoms: _604  and  _605
REMARK  236  A    between atoms: _604  and  _607
REMARK  237  A    between atoms: _607  and  _608
REMARK  238  A    between atoms: _613  and  _614
REMARK  239  A    between atoms: _616  and  _618
REMARK  240  A    between atoms: _618  and  _619
REMARK  241  A    between atoms: _618  and  _621
REMARK  242  A    between atoms: _624  and  _626
REMARK  243  A    between atoms: _626  and  _627
REMARK  244  A    between atoms: _626  and  _629
REMARK  245  A    between atoms: _629  and  _630
REMARK  246  A    between atoms: _635  and  _637
REMARK  247  A    between atoms: _637  and  _638
REMARK  248  A    between atoms: _641  and  _643
REMARK  249  A    between atoms: _643  and  _644
REMARK  250  A    between atoms: _643  and  _646
REMARK  251  A    between atoms: _646  and  _647
REMARK  252  A    between atoms: _647  and  _648
REMARK  253  A    between atoms: _648  and  _649
REMARK  254  A    between atoms: _658  and  _660
REMARK  255  A    between atoms: _660  and  _661
REMARK  256  A    between atoms: _660  and  _663
REMARK  257  A    between atoms: _663  and  _664
REMARK  258  A    between atoms: _667  and  _669
REMARK  259  A    between atoms: _669  and  _670
REMARK  260  A    between atoms: _669  and  _672
REMARK  261  A    between atoms: _672  and  _673
REMARK  262  A    between atoms: _676  and  _678
REMARK  263  A    between atoms: _678  and  _679
REMARK  264  A    between atoms: _678  and  _681
REMARK  265  A    between atoms: _681  and  _682
REMARK  266  A    between atoms: _687  and  _689
REMARK  267  A    between atoms: _689  and  _690
REMARK  268  A    between atoms: _689  and  _692
REMARK  269  A    between atoms: _692  and  _693
REMARK                            x       y       z     vdW  Elec       q    Type
REMARK                         _______ _______ _______ _____ _____    ______ ____
ROOT
ATOM      1  NE  ARG A   1      38.838  33.114  12.272  0.00  0.00    -0.265 N 
ATOM      2  CZ  ARG A   1      38.695  33.689  13.461  0.00  0.00    +0.342 C 
ATOM      3  NH2 ARG A   1      39.559  33.460  14.458  0.00  0.00    -0.292 N 
ATOM      4 HH21 ARG A   1      39.424  33.923  15.379  0.00  0.00    +0.255 HD
ATOM      5 HH22 ARG A   1      40.365  32.819  14.311  0.00  0.00    +0.255 HD
ATOM      6  NH1 ARG A   1      37.633  34.459  13.733  0.00  0.00    -0.292 N 
ATOM      7 HH11 ARG A   1      37.538  34.901  14.669  0.00  0.00    +0.255 HD
ATOM      8 HH12 ARG A   1      36.904  34.615  13.008  0.00  0.00    +0.255 HD
ATOM      9  HE  ARG A   1      38.071  33.294  11.593  0.00  0.00    +0.259 HD
ENDROOT
BRANCH   1  10
ATOM     10  CD  ARG A   1      39.917  32.268  11.787  0.00  0.00    +0.174 C 
BRANCH  10  11
ATOM     11  CG  ARG A   1      41.109  33.148  11.406  0.00  0.00    +0.045 C 
BRANCH  11  12
ATOM     12  CB  ARG A   1      40.757  33.978  10.159  0.00  0.00    +0.029 C 
BRANCH  12  13
ATOM     13  CA  ARG A   1      41.977  34.735   9.571  0.00  0.00    +0.133 C 
BRANCH  13  14
ATOM     14  N   ARG A   1      42.452  35.769  10.485  0.00  0.00    -0.239 NA
ATOM     15  H   ARG A   1      41.894  35.981  11.337  0.00  0.00    +0.142 HD
ENDBRANCH  13  14
BRANCH  13  16
ATOM     16  C   ARG A   1      41.637  35.237   8.162  0.00  0.00    +0.224 C 
ATOM     17  O   ARG A   1      41.728  34.434   7.200  0.00  0.00    -0.287 OA
ENDBRANCH  13  16
ENDBRANCH  12  13
ENDBRANCH  11  12
ENDBRANCH  10  11
ENDBRANCH   1  10
TORSDOF 6
REMARK  Name = ../refined-set-2016/1b7h/1b7h_pocket.pdb
REMARK  269 active torsions:
REMARK  status: ('A' for Active; 'I' for Inactive)
REMARK    1  A    between atoms: _1  and  _3
REMARK    2  A    between atoms: _3  and  _4
REMARK    3  A    between atoms: _6  and  _8
REMARK    4  A    between atoms: _8  and  _9
REMARK    5  A    between atoms: _8  and  _11
REMARK    6  A    between atoms: _11  and  _12
REMARK    7  A    between atoms: _14  and  _16
REMARK    8  A    between atoms: _16  and  _17
REMARK    9  A    between atoms: _16  and  _19
REMARK   10  A    between atoms: _19  and  _20
REMARK   11  A    between atoms: _20  and  _21
REMARK   12  A    between atoms: _26  and  _28
REMARK   13  A    between atoms: _28  and  _29
REMARK   14  A    between atoms: _28  and  _31
REMARK   15  A    between atoms: _31  and  _32
REMARK   16  A    between atoms: _35  and  _37
REMARK   17  A    between atoms: _37  and  _38
REMARK   18  A    between atoms: _37  and  _40
REMARK   19  A    between atoms: _40  and  _41
REMARK   20  A    between atoms: _41  and  _42
REMARK   21  A    between atoms: _45  and  _47
REMARK   22  A    between atoms: _47  and  _48
REMARK   23  A    between atoms: _50  and  _52
REMARK   24  A    between atoms: _52  and  _53
REMARK   25  A    between atoms: _52  and  _55
REMARK   26  A    between atoms: _59  and  _60
REMARK   27  A    between atoms: _65  and  _67
REMARK   28  A    between atoms: _67  and  _68
REMARK   29  A    between atoms: _67  and  _70
REMARK   30  A    between atoms: _70  and  _71
REMARK   31  A    between atoms: _71  and  _72
REMARK   32  A    between atoms: _75  and  _77
REMARK   33  A    between atoms: _77  and  _78
REMARK   34  A    between atoms: _77  and  _80
REMARK   35  A    between atoms: _80  and  _81
REMARK   36  A    between atoms: _83  and  _85
REMARK   37  A    between atoms: _85  and  _86
REMARK   38  A    between atoms: _85  and  _88
REMARK   39  A    between atoms: _88  and  _89
REMARK   40  A    between atoms: _94  and  _96
REMARK   41  A    between atoms: _96  and  _97
REMARK   42  A    between atoms: _96  and  _99
REMARK   43  A    between atoms: _99  and  _100
REMARK   44  A    between atoms: _100  and  _101
REMARK   45  A    between atoms: _101  and  _102
REMARK   46  A    between atoms: _112  and  _113
REMARK   47  A    between atoms: _118  and  _120
REMARK   48  A    between atoms: _120  and  _121
REMARK   49  A    between atoms: _120  and  _123
REMARK   50  A    between atoms: _123  and  _124
REMARK   51  A    between atoms: _129  and  _130
REMARK   52  A    between atoms: _132  and  _134
REMARK   53  A    between atoms: _134  and  _135
REMARK   54  A    between atoms: _134  and  _137
REMARK   55  A    between atoms: _137  and  _138
REMARK   56  A    between atoms: _143  and  _144
REMARK   57  A    between atoms: _146  and  _148
REMARK   58  A    between atoms: _148  and  _149
REMARK   59  A    between atoms: _148  and  _151
REMARK   60  A    between atoms: _154  and  _156
REMARK   61  A    between atoms: _156  and  _157
REMARK   62  A    between atoms: _156  and  _159
REMARK   63  A    between atoms: _159  and  _160
REMARK   64  A    between atoms: _166  and  _167
REMARK   65  A    between atoms: _172  and  _174
REMARK   66  A    between atoms: _174  and  _175
REMARK   67  A    between atoms: _174  and  _177
REMARK   68  A    between atoms: _177  and  _178
REMARK   69  A    between atoms: _180  and  _182
REMARK   70  A    between atoms: _182  and  _183
REMARK   71  A    between atoms: _182  and  _185
REMARK   72  A    between atoms: _185  and  _186
REMARK   73  A    between atoms: _191  and  _192
REMARK   74  A    between atoms: _194  and  _196
REMARK   75  A    between atoms: _196  and  _197
REMARK   76  A    between atoms: _196  and  _199
REMARK   77  A    between atoms: _199  and  _200
REMARK   78  A    between atoms: _205  and  _207
REMARK   79  A    between atoms: _207  and  _208
REMARK   80  A    between atoms: _207  and  _210
REMARK   81  A    between atoms: _210  and  _211
REMARK   82  A    between atoms: _216  and  _218
REMARK   83  A    between atoms: _218  and  _219
REMARK   84  A    between atoms: _218  and  _221
REMARK   85  A    between atoms: _221  and  _222
REMARK   86  A    between atoms: _222  and  _223
REMARK   87  A    between atoms: _225  and  _227
REMARK   88  A    between atoms: _227  and  _228
REMARK   89  A    between atoms: _227  and  _230
REMARK   90  A    between atoms: _230  and  _231
REMARK   91  A    between atoms: _236  and  _237
REMARK   92  A    between atoms: _239  and  _241
REMARK   93  A    between atoms: _241  and  _242
REMARK   94  A    between atoms: _241  and  _244
REMARK   95  A    between atoms: _244  and  _245
REMARK   96  A    between atoms: _248  and  _250
REMARK   97  A    between atoms: _250  and  _251
REMARK   98  A    between atoms: _250  and  _253
REMARK   99  A    between atoms: _253  and  _254
REMARK  100  A    between atoms: _254  and  _484
REMARK  101  A    between atoms: _255  and  _257
REMARK  102  A    between atoms: _257  and  _258
REMARK  103  A    between atoms: _257  and  _260
REMARK  104  A    between atoms: _260  and  _261
REMARK  105  A    between atoms: _264  and  _266
REMARK  106  A    between atoms: _266  and  _267
REMARK  107  A    between atoms: _266  and  _269
REMARK  108  A    between atoms: _269  and  _270
REMARK  109  A    between atoms: _275  and  _276
REMARK  110  A    between atoms: _278  and  _280
REMARK  111  A    between atoms: _280  and  _281
REMARK  112  A    between atoms: _280  and  _283
REMARK  113  A    between atoms: _283  and  _284
REMARK  114  A    between atoms: _289  and  _290
REMARK  115  A    between atoms: _292  and  _294
REMARK  116  A    between atoms: _294  and  _295
REMARK  117  A    between atoms: _294  and  _297
REMARK  118  A    between atoms: _297  and  _298
REMARK  119  A    between atoms: _298  and  _299
REMARK  120  A    between atoms: _302  and  _304
REMARK  121  A    between atoms: _304  and  _305
REMARK  122  A    between atoms: _304  and  _307
REMARK  123  A    between atoms: _307  and  _308
REMARK  124  A    between atoms: _308  and  _309
REMARK  125  A    between atoms: _309  and  _310
REMARK  126  A    between atoms: _310  and  _311
REMARK  127  A    between atoms: _315  and  _317
REMARK  128  A    between atoms: _317  and  _318
REMARK  129  A    between atoms: _317  and  _320
REMARK  130  A    between atoms: _320  and  _321
REMARK  131  A    between atoms: _326  and  _327
REMARK  132  A    between atoms: _329  and  _331
REMARK  133  A    between atoms: _331  and  _332
REMARK  134  A    between atoms: _331  and  _334
REMARK  135  A    between atoms: _334  and  _335
REMARK  136  A    between atoms: _340  and  _342
REMARK  137  A    between atoms: _342  and  _343
REMARK  138  A    between atoms: _342  and  _345
REMARK  139  A    between atoms: _345  and  _346
REMARK  140  A    between atoms: _349  and  _351
REMARK  141  A    between atoms: _351  and  _352
REMARK  142  A    between atoms: _351  and  _354
REMARK  143  A    between atoms: _354  and  _355
REMARK  144  A    between atoms: _360  and  _362
REMARK  145  A    between atoms: _362  and  _363
REMARK  146  A    between atoms: _362  and  _365
REMARK  147  A    between atoms: _365  and  _366
REMARK  148  A    between atoms: _376  and  _378
REMARK  149  A    between atoms: _378  and  _379
REMARK  150  A    between atoms: _378  and  _381
REMARK  151  A    between atoms: _381  and  _382
REMARK  152  A    between atoms: _388  and  _390
REMARK  153  A    between atoms: _390  and  _391
REMARK  154  A    between atoms: _390  and  _393
REMARK  155  A    between atoms: _393  and  _394
REMARK  156  A    between atoms: _397  and  _399
REMARK  157  A    between atoms: _399  and  _400
REMARK  158  A    between atoms: _399  and  _402
REMARK  159  A    between atoms: _402  and  _403
REMARK  160  A    between atoms: _406  and  _408
REMARK  161  A    between atoms: _408  and  _409
REMARK  162  A    between atoms: _408  and  _411
REMARK  163  A    between atoms: _411  and  _412
REMARK  164  A    between atoms: _412  and  _413
REMARK  165  A    between atoms: _413  and  _414
REMARK  166  A    between atoms: _423  and  _425
REMARK  167  A    between atoms: _425  and  _426
REMARK  168  A    between atoms: _425  and  _428
REMARK  169  A    between atoms: _428  and  _429
REMARK  170  A    between atoms: _434  and  _436
REMARK  171  A    between atoms: _436  and  _437
REMARK  172  A    between atoms: _436  and  _439
REMARK  173  A    between atoms: _439  and  _440
REMARK  174  A    between atoms: _440  and  _441
REMARK  175  A    between atoms: _441  and  _442
REMARK  176  A    between atoms: _451  and  _453
REMARK  177  A    between atoms: _453  and  _454
REMARK  178  A    between atoms: _457  and  _459
REMARK  179  A    between atoms: _459  and  _460
REMARK  180  A    between atoms: _462  and  _464
REMARK  181  A    between atoms: _464  and  _465
REMARK  182  A    between atoms: _464  and  _467
REMARK  183  A    between atoms: _467  and  _468
REMARK  184  A    between atoms: _478  and  _480
REMARK  185  A    between atoms: _480  and  _481
REMARK  186  A    between atoms: _480  and  _483
REMARK  187  A    between atoms: _483  and  _484
REMARK  188  A    between atoms: _485  and  _487
REMARK  189  A    between atoms: _487  and  _488
REMARK  190  A    between atoms: _491  and  _493
REMARK  191  A    between atoms: _493  and  _494
REMARK  192  A    between atoms: _493  and  _496
REMARK  193  A    between atoms: _496  and  _497
REMARK  194  A    between atoms: _500  and  _502
REMARK  195  A    between atoms: _502  and  _503
REMARK  196  A    between atoms: _502  and  _505
REMARK  197  A    between atoms: _505  and  _506
REMARK  198  A    between atoms: _511  and  _512
REMARK  199  A    between atoms: _514  and  _516
REMARK  200  A    between atoms: _516  and  _517
REMARK  201  A    between atoms: _516  and  _519
REMARK  202  A    between atoms: _519  and  _520
REMARK  203  A    between atoms: _522  and  _524
REMARK  204  A    between atoms: _524  and  _525
REMARK  205  A    between atoms: _524  and  _527
REMARK  206  A    between atoms: _527  and  _528
REMARK  207  A    between atoms: _534  and  _536
REMARK  208  A    between atoms: _536  and  _537
REMARK  209  A    between atoms: _536  and  _539
REMARK  210  A    between atoms: _539  and  _540
REMARK  211  A    between atoms: _543  and  _545
REMARK  212  A    between atoms: _545  and  _546
REMARK  213  A    between atoms: _545  and  _548
REMARK  214  A    between atoms: _548  and  _549
REMARK  215  A    between atoms: _551  and  _553
REMARK  216  A    between atoms: _553  and  _554
REMARK  217  A    between atoms: _553  and  _556
REMARK  218  A    between atoms: _556  and  _557
REMARK  219  A    between atoms: _562  and  _564
REMARK  220  A    between atoms: _564  and  _565
REMARK  221  A    between atoms: _564  and  _567
REMARK  222  A    between atoms: _567  and  _568
REMARK  223  A    between atoms: _573  and  _575
REMARK  224  A    between atoms: _575  and  _576
REMARK  225  A    between atoms: _575  and  _578
REMARK  226  A    between atoms: _578  and  _579
REMARK  227  A    between atoms: _582  and  _584
REMARK  228  A    between atoms: _584  and  _585
REMARK  229  A    between atoms: _588  and  _590
REMARK  230  A    between atoms: _590  and  _591
REMARK  231  A    between atoms: _590  and  _593
REMARK  232  A    between atoms: _593  and  _594
REMARK  233  A    between atoms: _599  and  _600
REMARK  234  A    between atoms: _602  and  _604
REMARK  235  A    between atoms: _604  and  _605
REMARK  236  A    between atoms: _604  and  _607
REMARK  237  A    between atoms: _607  and  _608
REMARK  238  A    between atoms: _613  and  _614
REMARK  239  A    between atoms: _616  and  _618
REMARK  240  A    between atoms: _618  and  _619
REMARK  241  A    between atoms: _618  and  _621
REMARK  242  A    between atoms: _624  and  _626
REMARK  243  A    between atoms: _626  and  _627
REMARK  244  A    between atoms: _626  and  _629
REMARK  245  A    between atoms: _629  and  _630
REMARK  246  A    between atoms: _635  and  _637
REMARK  247  A    between atoms: _637  and  _638
REMARK  248  A    between atoms: _641  and  _643
REMARK  249  A    between atoms: _643  and  _644
REMARK  250  A    between atoms: _643  and  _646
REMARK  251  A    between atoms: _646  and  _647
REMARK  252  A    between atoms: _647  and  _648
REMARK  253  A    between atoms: _648  and  _649
REMARK  254  A    between atoms: _658  and  _660
REMARK  255  A    between atoms: _660  and  _661
REMARK  256  A    between atoms: _660  and  _663
REMARK  257  A    between atoms: _663  and  _664
REMARK  258  A    between atoms: _667  and  _669
REMARK  259  A    between atoms: _669  and  _670
REMARK  260  A    between atoms: _669  and  _672
REMARK  261  A    between atoms: _672  and  _673
REMARK  262  A    between atoms: _676  and  _678
REMARK  263  A    between atoms: _678  and  _679
REMARK  264  A    between atoms: _678  and  _681
REMARK  265  A    between atoms: _681  and  _682
REMARK  266  A    between atoms: _687  and  _689
REMARK  267  A    between atoms: _689  and  _690
REMARK  268  A    between atoms: _689  and  _692
REMARK  269  A    between atoms: _692  and  _693
REMARK                            x       y       z     vdW  Elec       q    Type
REMARK                         _______ _______ _______ _____ _____    ______ ____
ROOT
ATOM      1  CA  TYR A   2      51.891  32.811  21.786  0.00  0.00    +0.141 C 
ENDROOT
BRANCH   1   4
ATOM      2  C   PRO A   1      52.065  34.625  23.407  0.00  0.00    +0.239 C 
ATOM      3  O   PRO A   1      51.598  33.895  24.292  0.00  0.00    -0.274 OA
ATOM      4  N   TYR A   2      52.109  34.174  22.167  0.00  0.00    -0.298 N 
ATOM      5  H   TYR A   2      52.317  34.858  21.412  0.00  0.00    +0.150 HD
BRANCH   2   7
ATOM      6  N   PRO A   1      53.181  36.674  22.694  0.00  0.00    -0.210 NA
ATOM      7  CA  PRO A   1      52.357  36.098  23.736  0.00  0.00    +0.149 C 
ATOM      8  CB  PRO A   1      51.018  36.864  23.723  0.00  0.00    +0.028 C 
ATOM      9  CG  PRO A   1      51.018  37.494  22.332  0.00  0.00    +0.021 C 
ATOM     10  CD  PRO A   1      52.477  37.728  21.956  0.00  0.00    +0.089 C 
ENDBRANCH   2   7
ENDBRANCH   1   4
BRANCH   1  11
ATOM     11  C   TYR A   2      53.156  32.051  21.440  0.00  0.00    +0.227 C 
ATOM     12  O   TYR A   2      53.083  31.019  20.766  0.00  0.00    -0.286 OA
ENDBRANCH   1  11
BRANCH   1  13
ATOM     13  CB  TYR A   2      50.975  32.667  20.532  0.00  0.00    +0.054 C 
BRANCH  13  14
ATOM     14  CG  TYR A   2      49.510  32.535  20.947  0.00  0.00    -0.020 A 
ATOM     15  CD2 TYR A   2      49.043  31.272  21.300  0.00  0.00    -0.001 A 
ATOM     16  CE2 TYR A   2      47.760  31.010  21.728  0.00  0.00    +0.036 A 
ATOM     17  CZ  TYR A   2      46.864  32.091  21.724  0.00  0.00    +0.134 A 
ATOM     18  CE1 TYR A   2      47.278  33.348  21.356  0.00  0.00    +0.036 A 
ATOM     19  CD1 TYR A   2      48.599  33.570  20.938  0.00  0.00    -0.001 A 
BRANCH  17  20
ATOM     20  OH  TYR A   2      45.559  31.807  22.046  0.00  0.00    -0.506 OA
ATOM     21  HH  TYR A   2      45.196  31.152  21.399  0.00  0.00    +0.292 HD
ENDBRANCH  17  20
ENDBRANCH  13  14
ENDBRANCH   1  13
TORSDOF 6
REMARK  Name = ../refined-set-2016/1b7h/1b7h_pocket.pdb
REMARK  269 active torsions:
REMARK  status: ('A' for Active; 'I' for Inactive)
REMARK    1  A    between atoms: _1  and  _3
REMARK    2  A    between atoms: _3  and  _4
REMARK    3  A    between atoms: _6  and  _8
REMARK    4  A    between atoms: _8  and  _9
REMARK    5  A    between atoms: _8  and  _11
REMARK    6  A    between atoms: _11  and  _12
REMARK    7  A    between atoms: _14  and  _16
REMARK    8  A    between atoms: _16  and  _17
REMARK    9  A    between atoms: _16  and  _19
REMARK   10  A    between atoms: _19  and  _20
REMARK   11  A    between atoms: _20  and  _21
REMARK   12  A    between atoms: _26  and  _28
REMARK   13  A    between atoms: _28  and  _29
REMARK   14  A    between atoms: _28  and  _31
REMARK   15  A    between atoms: _31  and  _32
REMARK   16  A    between atoms: _35  and  _37
REMARK   17  A    between atoms: _37  and  _38
REMARK   18  A    between atoms: _37  and  _40
REMARK   19  A    between atoms: _40  and  _41
REMARK   20  A    between atoms: _41  and  _42
REMARK   21  A    between atoms: _45  and  _47
REMARK   22  A    between atoms: _47  and  _48
REMARK   23  A    between atoms: _50  and  _52
REMARK   24  A    between atoms: _52  and  _53
REMARK   25  A    between atoms: _52  and  _55
REMARK   26  A    between atoms: _59  and  _60
REMARK   27  A    between atoms: _65  and  _67
REMARK   28  A    between atoms: _67  and  _68
REMARK   29  A    between atoms: _67  and  _70
REMARK   30  A    between atoms: _70  and  _71
REMARK   31  A    between atoms: _71  and  _72
REMARK   32  A    between atoms: _75  and  _77
REMARK   33  A    between atoms: _77  and  _78
REMARK   34  A    between atoms: _77  and  _80
REMARK   35  A    between atoms: _80  and  _81
REMARK   36  A    between atoms: _83  and  _85
REMARK   37  A    between atoms: _85  and  _86
REMARK   38  A    between atoms: _85  and  _88
REMARK   39  A    between atoms: _88  and  _89
REMARK   40  A    between atoms: _94  and  _96
REMARK   41  A    between atoms: _96  and  _97
REMARK   42  A    between atoms: _96  and  _99
REMARK   43  A    between atoms: _99  and  _100
REMARK   44  A    between atoms: _100  and  _101
REMARK   45  A    between atoms: _101  and  _102
REMARK   46  A    between atoms: _112  and  _113
REMARK   47  A    between atoms: _118  and  _120
REMARK   48  A    between atoms: _120  and  _121
REMARK   49  A    between atoms: _120  and  _123
REMARK   50  A    between atoms: _123  and  _124
REMARK   51  A    between atoms: _129  and  _130
REMARK   52  A    between atoms: _132  and  _134
REMARK   53  A    between atoms: _134  and  _135
REMARK   54  A    between atoms: _134  and  _137
REMARK   55  A    between atoms: _137  and  _138
REMARK   56  A    between atoms: _143  and  _144
REMARK   57  A    between atoms: _146  and  _148
REMARK   58  A    between atoms: _148  and  _149
REMARK   59  A    between atoms: _148  and  _151
REMARK   60  A    between atoms: _154  and  _156
REMARK   61  A    between atoms: _156  and  _157
REMARK   62  A    between atoms: _156  and  _159
REMARK   63  A    between atoms: _159  and  _160
REMARK   64  A    between atoms: _166  and  _167
REMARK   65  A    between atoms: _172  and  _174
REMARK   66  A    between atoms: _174  and  _175
REMARK   67  A    between atoms: _174  and  _177
REMARK   68  A    between atoms: _177  and  _178
REMARK   69  A    between atoms: _180  and  _182
REMARK   70  A    between atoms: _182  and  _183
REMARK   71  A    between atoms: _182  and  _185
REMARK   72  A    between atoms: _185  and  _186
REMARK   73  A    between atoms: _191  and  _192
REMARK   74  A    between atoms: _194  and  _196
REMARK   75  A    between atoms: _196  and  _197
REMARK   76  A    between atoms: _196  and  _199
REMARK   77  A    between atoms: _199  and  _200
REMARK   78  A    between atoms: _205  and  _207
REMARK   79  A    between atoms: _207  and  _208
REMARK   80  A    between atoms: _207  and  _210
REMARK   81  A    between atoms: _210  and  _211
REMARK   82  A    between atoms: _216  and  _218
REMARK   83  A    between atoms: _218  and  _219
REMARK   84  A    between atoms: _218  and  _221
REMARK   85  A    between atoms: _221  and  _222
REMARK   86  A    between atoms: _222  and  _223
REMARK   87  A    between atoms: _225  and  _227
REMARK   88  A    between atoms: _227  and  _228
REMARK   89  A    between atoms: _227  and  _230
REMARK   90  A    between atoms: _230  and  _231
REMARK   91  A    between atoms: _236  and  _237
REMARK   92  A    between atoms: _239  and  _241
REMARK   93  A    between atoms: _241  and  _242
REMARK   94  A    between atoms: _241  and  _244
REMARK   95  A    between atoms: _244  and  _245
REMARK   96  A    between atoms: _248  and  _250
REMARK   97  A    between atoms: _250  and  _251
REMARK   98  A    between atoms: _250  and  _253
REMARK   99  A    between atoms: _253  and  _254
REMARK  100  A    between atoms: _254  and  _484
REMARK  101  A    between atoms: _255  and  _257
REMARK  102  A    between atoms: _257  and  _258
REMARK  103  A    between atoms: _257  and  _260
REMARK  104  A    between atoms: _260  and  _261
REMARK  105  A    between atoms: _264  and  _266
REMARK  106  A    between atoms: _266  and  _267
REMARK  107  A    between atoms: _266  and  _269
REMARK  108  A    between atoms: _269  and  _270
REMARK  109  A    between atoms: _275  and  _276
REMARK  110  A    between atoms: _278  and  _280
REMARK  111  A    between atoms: _280  and  _281
REMARK  112  A    between atoms: _280  and  _283
REMARK  113  A    between atoms: _283  and  _284
REMARK  114  A    between atoms: _289  and  _290
REMARK  115  A    between atoms: _292  and  _294
REMARK  116  A    between atoms: _294  and  _295
REMARK  117  A    between atoms: _294  and  _297
REMARK  118  A    between atoms: _297  and  _298
REMARK  119  A    between atoms: _298  and  _299
REMARK  120  A    between atoms: _302  and  _304
REMARK  121  A    between atoms: _304  and  _305
REMARK  122  A    between atoms: _304  and  _307
REMARK  123  A    between atoms: _307  and  _308
REMARK  124  A    between atoms: _308  and  _309
REMARK  125  A    between atoms: _309  and  _310
REMARK  126  A    between atoms: _310  and  _311
REMARK  127  A    between atoms: _315  and  _317
REMARK  128  A    between atoms: _317  and  _318
REMARK  129  A    between atoms: _317  and  _320
REMARK  130  A    between atoms: _320  and  _321
REMARK  131  A    between atoms: _326  and  _327
REMARK  132  A    between atoms: _329  and  _331
REMARK  133  A    between atoms: _331  and  _332
REMARK  134  A    between atoms: _331  and  _334
REMARK  135  A    between atoms: _334  and  _335
REMARK  136  A    between atoms: _340  and  _342
REMARK  137  A    between atoms: _342  and  _343
REMARK  138  A    between atoms: _342  and  _345
REMARK  139  A    between atoms: _345  and  _346
REMARK  140  A    between atoms: _349  and  _351
REMARK  141  A    between atoms: _351  and  _352
REMARK  142  A    between atoms: _351  and  _354
REMARK  143  A    between atoms: _354  and  _355
REMARK  144  A    between atoms: _360  and  _362
REMARK  145  A    between atoms: _362  and  _363
REMARK  146  A    between atoms: _362  and  _365
REMARK  147  A    between atoms: _365  and  _366
REMARK  148  A    between atoms: _376  and  _378
REMARK  149  A    between atoms: _378  and  _379
REMARK  150  A    between atoms: _378  and  _381
REMARK  151  A    between atoms: _381  and  _382
REMARK  152  A    between atoms: _388  and  _390
REMARK  153  A    between atoms: _390  and  _391
REMARK  154  A    between atoms: _390  and  _393
REMARK  155  A    between atoms: _393  and  _394
REMARK  156  A    between atoms: _397  and  _399
REMARK  157  A    between atoms: _399  and  _400
REMARK  158  A    between atoms: _399  and  _402
REMARK  159  A    between atoms: _402  and  _403
REMARK  160  A    between atoms: _406  and  _408
REMARK  161  A    between atoms: _408  and  _409
REMARK  162  A    between atoms: _408  and  _411
REMARK  163  A    between atoms: _411  and  _412
REMARK  164  A    between atoms: _412  and  _413
REMARK  165  A    between atoms: _413  and  _414
REMARK  166  A    between atoms: _423  and  _425
REMARK  167  A    between atoms: _425  and  _426
REMARK  168  A    between atoms: _425  and  _428
REMARK  169  A    between atoms: _428  and  _429
REMARK  170  A    between atoms: _434  and  _436
REMARK  171  A    between atoms: _436  and  _437
REMARK  172  A    between atoms: _436  and  _439
REMARK  173  A    between atoms: _439  and  _440
REMARK  174  A    between atoms: _440  and  _441
REMARK  175  A    between atoms: _441  and  _442
REMARK  176  A    between atoms: _451  and  _453
REMARK  177  A    between atoms: _453  and  _454
REMARK  178  A    between atoms: _457  and  _459
REMARK  179  A    between atoms: _459  and  _460
REMARK  180  A    between atoms: _462  and  _464
REMARK  181  A    between atoms: _464  and  _465
REMARK  182  A    between atoms: _464  and  _467
REMARK  183  A    between atoms: _467  and  _468
REMARK  184  A    between atoms: _478  and  _480
REMARK  185  A    between atoms: _480  and  _481
REMARK  186  A    between atoms: _480  and  _483
REMARK  187  A    between atoms: _483  and  _484
REMARK  188  A    between atoms: _485  and  _487
REMARK  189  A    between atoms: _487  and  _488
REMARK  190  A    between atoms: _491  and  _493
REMARK  191  A    between atoms: _493  and  _494
REMARK  192  A    between atoms: _493  and  _496
REMARK  193  A    between atoms: _496  and  _497
REMARK  194  A    between atoms: _500  and  _502
REMARK  195  A    between atoms: _502  and  _503
REMARK  196  A    between atoms: _502  and  _505
REMARK  197  A    between atoms: _505  and  _506
REMARK  198  A    between atoms: _511  and  _512
REMARK  199  A    between atoms: _514  and  _516
REMARK  200  A    between atoms: _516  and  _517
REMARK  201  A    between atoms: _516  and  _519
REMARK  202  A    between atoms: _519  and  _520
REMARK  203  A    between atoms: _522  and  _524
REMARK  204  A    between atoms: _524  and  _525
REMARK  205  A    between atoms: _524  and  _527
REMARK  206  A    between atoms: _527  and  _528
REMARK  207  A    between atoms: _534  and  _536
REMARK  208  A    between atoms: _536  and  _537
REMARK  209  A    between atoms: _536  and  _539
REMARK  210  A    between atoms: _539  and  _540
REMARK  211  A    between atoms: _543  and  _545
REMARK  212  A    between atoms: _545  and  _546
REMARK  213  A    between atoms: _545  and  _548
REMARK  214  A    between atoms: _548  and  _549
REMARK  215  A    between atoms: _551  and  _553
REMARK  216  A    between atoms: _553  and  _554
REMARK  217  A    between atoms: _553  and  _556
REMARK  218  A    between atoms: _556  and  _557
REMARK  219  A    between atoms: _562  and  _564
REMARK  220  A    between atoms: _564  and  _565
REMARK  221  A    between atoms: _564  and  _567
REMARK  222  A    between atoms: _567  and  _568
REMARK  223  A    between atoms: _573  and  _575
REMARK  224  A    between atoms: _575  and  _576
REMARK  225  A    between atoms: _575  and  _578
REMARK  226  A    between atoms: _578  and  _579
REMARK  227  A    between atoms: _582  and  _584
REMARK  228  A    between atoms: _584  and  _585
REMARK  229  A    between atoms: _588  and  _590
REMARK  230  A    between atoms: _590  and  _591
REMARK  231  A    between atoms: _590  and  _593
REMARK  232  A    between atoms: _593  and  _594
REMARK  233  A    between atoms: _599  and  _600
REMARK  234  A    between atoms: _602  and  _604
REMARK  235  A    between atoms: _604  and  _605
REMARK  236  A    between atoms: _604  and  _607
REMARK  237  A    between atoms: _607  and  _608
REMARK  238  A    between atoms: _613  and  _614
REMARK  239  A    between atoms: _616  and  _618
REMARK  240  A    between atoms: _618  and  _619
REMARK  241  A    between atoms: _618  and  _621
REMARK  242  A    between atoms: _624  and  _626
REMARK  243  A    between atoms: _626  and  _627
REMARK  244  A    between atoms: _626  and  _629
REMARK  245  A    between atoms: _629  and  _630
REMARK  246  A    between atoms: _635  and  _637
REMARK  247  A    between atoms: _637  and  _638
REMARK  248  A    between atoms: _641  and  _643
REMARK  249  A    between atoms: _643  and  _644
REMARK  250  A    between atoms: _643  and  _646
REMARK  251  A    between atoms: _646  and  _647
REMARK  252  A    between atoms: _647  and  _648
REMARK  253  A    between atoms: _648  and  _649
REMARK  254  A    between atoms: _658  and  _660
REMARK  255  A    between atoms: _660  and  _661
REMARK  256  A    between atoms: _660  and  _663
REMARK  257  A    between atoms: _663  and  _664
REMARK  258  A    between atoms: _667  and  _669
REMARK  259  A    between atoms: _669  and  _670
REMARK  260  A    between atoms: _669  and  _672
REMARK  261  A    between atoms: _672  and  _673
REMARK  262  A    between atoms: _676  and  _678
REMARK  263  A    between atoms: _678  and  _679
REMARK  264  A    between atoms: _678  and  _681
REMARK  265  A    between atoms: _681  and  _682
REMARK  266  A    between atoms: _687  and  _689
REMARK  267  A    between atoms: _689  and  _690
REMARK  268  A    between atoms: _689  and  _692
REMARK  269  A    between atoms: _692  and  _693
REMARK                            x       y       z     vdW  Elec       q    Type
REMARK                         _______ _______ _______ _____ _____    ______ ____
ROOT
ATOM      1  CG  TYR A   1      50.025  27.825  19.451  0.00  0.00    -0.020 A 
ATOM      2  CD2 TYR A   1      48.893  27.840  20.274  0.00  0.00    -0.001 A 
ATOM      3  CE2 TYR A   1      47.670  27.334  19.833  0.00  0.00    +0.036 A 
ATOM      4  CZ  TYR A   1      47.600  26.869  18.540  0.00  0.00    +0.134 A 
ATOM      5  CE1 TYR A   1      48.705  26.886  17.689  0.00  0.00    +0.036 A 
ATOM      6  CD1 TYR A   1      49.928  27.377  18.155  0.00  0.00    -0.001 A 
ENDROOT
BRANCH   4   7
ATOM      7  OH  TYR A   1      46.417  26.364  18.043  0.00  0.00    -0.506 OA
ATOM      8  HH  TYR A   1      46.551  25.422  17.770  0.00  0.00    +0.292 HD
ENDBRANCH   4   7
BRANCH   1   9
ATOM      9  CB  TYR A   1      51.333  28.428  20.001  0.00  0.00    +0.051 C 
BRANCH   9  10
ATOM     10  CA  TYR A   1      51.992  27.572  21.078  0.00  0.00    +0.137 C 
BRANCH  10  11
ATOM     11  N   TYR A   1      52.866  28.462  21.861  0.00  0.00    -0.239 NA
ATOM     12  H   TYR A   1      53.058  29.438  21.557  0.00  0.00    +0.142 HD
ENDBRANCH  10  11
BRANCH  10  13
ATOM     13  C   TYR A   1      52.852  26.435  20.492  0.00  0.00    +0.224 C 
ATOM     14  O   TYR A   1      52.395  25.367  20.187  0.00  0.00    -0.287 OA
ENDBRANCH  10  13
ENDBRANCH   9  10
ENDBRANCH   1   9
TORSDOF 5
REMARK  Name = ../refined-set-2016/1b7h/1b7h_pocket.pdb
REMARK  269 active torsions:
REMARK  status: ('A' for Active; 'I' for Inactive)
REMARK    1  A    between atoms: _1  and  _3
REMARK    2  A    between atoms: _3  and  _4
REMARK    3  A    between atoms: _6  and  _8
REMARK    4  A    between atoms: _8  and  _9
REMARK    5  A    between atoms: _8  and  _11
REMARK    6  A    between atoms: _11  and  _12
REMARK    7  A    between atoms: _14  and  _16
REMARK    8  A    between atoms: _16  and  _17
REMARK    9  A    between atoms: _16  and  _19
REMARK   10  A    between atoms: _19  and  _20
REMARK   11  A    between atoms: _20  and  _21
REMARK   12  A    between atoms: _26  and  _28
REMARK   13  A    between atoms: _28  and  _29
REMARK   14  A    between atoms: _28  and  _31
REMARK   15  A    between atoms: _31  and  _32
REMARK   16  A    between atoms: _35  and  _37
REMARK   17  A    between atoms: _37  and  _38
REMARK   18  A    between atoms: _37  and  _40
REMARK   19  A    between atoms: _40  and  _41
REMARK   20  A    between atoms: _41  and  _42
REMARK   21  A    between atoms: _45  and  _47
REMARK   22  A    between atoms: _47  and  _48
REMARK   23  A    between atoms: _50  and  _52
REMARK   24  A    between atoms: _52  and  _53
REMARK   25  A    between atoms: _52  and  _55
REMARK   26  A    between atoms: _59  and  _60
REMARK   27  A    between atoms: _65  and  _67
REMARK   28  A    between atoms: _67  and  _68
REMARK   29  A    between atoms: _67  and  _70
REMARK   30  A    between atoms: _70  and  _71
REMARK   31  A    between atoms: _71  and  _72
REMARK   32  A    between atoms: _75  and  _77
REMARK   33  A    between atoms: _77  and  _78
REMARK   34  A    between atoms: _77  and  _80
REMARK   35  A    between atoms: _80  and  _81
REMARK   36  A    between atoms: _83  and  _85
REMARK   37  A    between atoms: _85  and  _86
REMARK   38  A    between atoms: _85  and  _88
REMARK   39  A    between atoms: _88  and  _89
REMARK   40  A    between atoms: _94  and  _96
REMARK   41  A    between atoms: _96  and  _97
REMARK   42  A    between atoms: _96  and  _99
REMARK   43  A    between atoms: _99  and  _100
REMARK   44  A    between atoms: _100  and  _101
REMARK   45  A    between atoms: _101  and  _102
REMARK   46  A    between atoms: _112  and  _113
REMARK   47  A    between atoms: _118  and  _120
REMARK   48  A    between atoms: _120  and  _121
REMARK   49  A    between atoms: _120  and  _123
REMARK   50  A    between atoms: _123  and  _124
REMARK   51  A    between atoms: _129  and  _130
REMARK   52  A    between atoms: _132  and  _134
REMARK   53  A    between atoms: _134  and  _135
REMARK   54  A    between atoms: _134  and  _137
REMARK   55  A    between atoms: _137  and  _138
REMARK   56  A    between atoms: _143  and  _144
REMARK   57  A    between atoms: _146  and  _148
REMARK   58  A    between atoms: _148  and  _149
REMARK   59  A    between atoms: _148  and  _151
REMARK   60  A    between atoms: _154  and  _156
REMARK   61  A    between atoms: _156  and  _157
REMARK   62  A    between atoms: _156  and  _159
REMARK   63  A    between atoms: _159  and  _160
REMARK   64  A    between atoms: _166  and  _167
REMARK   65  A    between atoms: _172  and  _174
REMARK   66  A    between atoms: _174  and  _175
REMARK   67  A    between atoms: _174  and  _177
REMARK   68  A    between atoms: _177  and  _178
REMARK   69  A    between atoms: _180  and  _182
REMARK   70  A    between atoms: _182  and  _183
REMARK   71  A    between atoms: _182  and  _185
REMARK   72  A    between atoms: _185  and  _186
REMARK   73  A    between atoms: _191  and  _192
REMARK   74  A    between atoms: _194  and  _196
REMARK   75  A    between atoms: _196  and  _197
REMARK   76  A    between atoms: _196  and  _199
REMARK   77  A    between atoms: _199  and  _200
REMARK   78  A    between atoms: _205  and  _207
REMARK   79  A    between atoms: _207  and  _208
REMARK   80  A    between atoms: _207  and  _210
REMARK   81  A    between atoms: _210  and  _211
REMARK   82  A    between atoms: _216  and  _218
REMARK   83  A    between atoms: _218  and  _219
REMARK   84  A    between atoms: _218  and  _221
REMARK   85  A    between atoms: _221  and  _222
REMARK   86  A    between atoms: _222  and  _223
REMARK   87  A    between atoms: _225  and  _227
REMARK   88  A    between atoms: _227  and  _228
REMARK   89  A    between atoms: _227  and  _230
REMARK   90  A    between atoms: _230  and  _231
REMARK   91  A    between atoms: _236  and  _237
REMARK   92  A    between atoms: _239  and  _241
REMARK   93  A    between atoms: _241  and  _242
REMARK   94  A    between atoms: _241  and  _244
REMARK   95  A    between atoms: _244  and  _245
REMARK   96  A    between atoms: _248  and  _250
REMARK   97  A    between atoms: _250  and  _251
REMARK   98  A    between atoms: _250  and  _253
REMARK   99  A    between atoms: _253  and  _254
REMARK  100  A    between atoms: _254  and  _484
REMARK  101  A    between atoms: _255  and  _257
REMARK  102  A    between atoms: _257  and  _258
REMARK  103  A    between atoms: _257  and  _260
REMARK  104  A    between atoms: _260  and  _261
REMARK  105  A    between atoms: _264  and  _266
REMARK  106  A    between atoms: _266  and  _267
REMARK  107  A    between atoms: _266  and  _269
REMARK  108  A    between atoms: _269  and  _270
REMARK  109  A    between atoms: _275  and  _276
REMARK  110  A    between atoms: _278  and  _280
REMARK  111  A    between atoms: _280  and  _281
REMARK  112  A    between atoms: _280  and  _283
REMARK  113  A    between atoms: _283  and  _284
REMARK  114  A    between atoms: _289  and  _290
REMARK  115  A    between atoms: _292  and  _294
REMARK  116  A    between atoms: _294  and  _295
REMARK  117  A    between atoms: _294  and  _297
REMARK  118  A    between atoms: _297  and  _298
REMARK  119  A    between atoms: _298  and  _299
REMARK  120  A    between atoms: _302  and  _304
REMARK  121  A    between atoms: _304  and  _305
REMARK  122  A    between atoms: _304  and  _307
REMARK  123  A    between atoms: _307  and  _308
REMARK  124  A    between atoms: _308  and  _309
REMARK  125  A    between atoms: _309  and  _310
REMARK  126  A    between atoms: _310  and  _311
REMARK  127  A    between atoms: _315  and  _317
REMARK  128  A    between atoms: _317  and  _318
REMARK  129  A    between atoms: _317  and  _320
REMARK  130  A    between atoms: _320  and  _321
REMARK  131  A    between atoms: _326  and  _327
REMARK  132  A    between atoms: _329  and  _331
REMARK  133  A    between atoms: _331  and  _332
REMARK  134  A    between atoms: _331  and  _334
REMARK  135  A    between atoms: _334  and  _335
REMARK  136  A    between atoms: _340  and  _342
REMARK  137  A    between atoms: _342  and  _343
REMARK  138  A    between atoms: _342  and  _345
REMARK  139  A    between atoms: _345  and  _346
REMARK  140  A    between atoms: _349  and  _351
REMARK  141  A    between atoms: _351  and  _352
REMARK  142  A    between atoms: _351  and  _354
REMARK  143  A    between atoms: _354  and  _355
REMARK  144  A    between atoms: _360  and  _362
REMARK  145  A    between atoms: _362  and  _363
REMARK  146  A    between atoms: _362  and  _365
REMARK  147  A    between atoms: _365  and  _366
REMARK  148  A    between atoms: _376  and  _378
REMARK  149  A    between atoms: _378  and  _379
REMARK  150  A    between atoms: _378  and  _381
REMARK  151  A    between atoms: _381  and  _382
REMARK  152  A    between atoms: _388  and  _390
REMARK  153  A    between atoms: _390  and  _391
REMARK  154  A    between atoms: _390  and  _393
REMARK  155  A    between atoms: _393  and  _394
REMARK  156  A    between atoms: _397  and  _399
REMARK  157  A    between atoms: _399  and  _400
REMARK  158  A    between atoms: _399  and  _402
REMARK  159  A    between atoms: _402  and  _403
REMARK  160  A    between atoms: _406  and  _408
REMARK  161  A    between atoms: _408  and  _409
REMARK  162  A    between atoms: _408  and  _411
REMARK  163  A    between atoms: _411  and  _412
REMARK  164  A    between atoms: _412  and  _413
REMARK  165  A    between atoms: _413  and  _414
REMARK  166  A    between atoms: _423  and  _425
REMARK  167  A    between atoms: _425  and  _426
REMARK  168  A    between atoms: _425  and  _428
REMARK  169  A    between atoms: _428  and  _429
REMARK  170  A    between atoms: _434  and  _436
REMARK  171  A    between atoms: _436  and  _437
REMARK  172  A    between atoms: _436  and  _439
REMARK  173  A    between atoms: _439  and  _440
REMARK  174  A    between atoms: _440  and  _441
REMARK  175  A    between atoms: _441  and  _442
REMARK  176  A    between atoms: _451  and  _453
REMARK  177  A    between atoms: _453  and  _454
REMARK  178  A    between atoms: _457  and  _459
REMARK  179  A    between atoms: _459  and  _460
REMARK  180  A    between atoms: _462  and  _464
REMARK  181  A    between atoms: _464  and  _465
REMARK  182  A    between atoms: _464  and  _467
REMARK  183  A    between atoms: _467  and  _468
REMARK  184  A    between atoms: _478  and  _480
REMARK  185  A    between atoms: _480  and  _481
REMARK  186  A    between atoms: _480  and  _483
REMARK  187  A    between atoms: _483  and  _484
REMARK  188  A    between atoms: _485  and  _487
REMARK  189  A    between atoms: _487  and  _488
REMARK  190  A    between atoms: _491  and  _493
REMARK  191  A    between atoms: _493  and  _494
REMARK  192  A    between atoms: _493  and  _496
REMARK  193  A    between atoms: _496  and  _497
REMARK  194  A    between atoms: _500  and  _502
REMARK  195  A    between atoms: _502  and  _503
REMARK  196  A    between atoms: _502  and  _505
REMARK  197  A    between atoms: _505  and  _506
REMARK  198  A    between atoms: _511  and  _512
REMARK  199  A    between atoms: _514  and  _516
REMARK  200  A    between atoms: _516  and  _517
REMARK  201  A    between atoms: _516  and  _519
REMARK  202  A    between atoms: _519  and  _520
REMARK  203  A    between atoms: _522  and  _524
REMARK  204  A    between atoms: _524  and  _525
REMARK  205  A    between atoms: _524  and  _527
REMARK  206  A    between atoms: _527  and  _528
REMARK  207  A    between atoms: _534  and  _536
REMARK  208  A    between atoms: _536  and  _537
REMARK  209  A    between atoms: _536  and  _539
REMARK  210  A    between atoms: _539  and  _540
REMARK  211  A    between atoms: _543  and  _545
REMARK  212  A    between atoms: _545  and  _546
REMARK  213  A    between atoms: _545  and  _548
REMARK  214  A    between atoms: _548  and  _549
REMARK  215  A    between atoms: _551  and  _553
REMARK  216  A    between atoms: _553  and  _554
REMARK  217  A    between atoms: _553  and  _556
REMARK  218  A    between atoms: _556  and  _557
REMARK  219  A    between atoms: _562  and  _564
REMARK  220  A    between atoms: _564  and  _565
REMARK  221  A    between atoms: _564  and  _567
REMARK  222  A    between atoms: _567  and  _568
REMARK  223  A    between atoms: _573  and  _575
REMARK  224  A    between atoms: _575  and  _576
REMARK  225  A    between atoms: _575  and  _578
REMARK  226  A    between atoms: _578  and  _579
REMARK  227  A    between atoms: _582  and  _584
REMARK  228  A    between atoms: _584  and  _585
REMARK  229  A    between atoms: _588  and  _590
REMARK  230  A    between atoms: _590  and  _591
REMARK  231  A    between atoms: _590  and  _593
REMARK  232  A    between atoms: _593  and  _594
REMARK  233  A    between atoms: _599  and  _600
REMARK  234  A    between atoms: _602  and  _604
REMARK  235  A    between atoms: _604  and  _605
REMARK  236  A    between atoms: _604  and  _607
REMARK  237  A    between atoms: _607  and  _608
REMARK  238  A    between atoms: _613  and  _614
REMARK  239  A    between atoms: _616  and  _618
REMARK  240  A    between atoms: _618  and  _619
REMARK  241  A    between atoms: _618  and  _621
REMARK  242  A    between atoms: _624  and  _626
REMARK  243  A    between atoms: _626  and  _627
REMARK  244  A    between atoms: _626  and  _629
REMARK  245  A    between atoms: _629  and  _630
REMARK  246  A    between atoms: _635  and  _637
REMARK  247  A    between atoms: _637  and  _638
REMARK  248  A    between atoms: _641  and  _643
REMARK  249  A    between atoms: _643  and  _644
REMARK  250  A    between atoms: _643  and  _646
REMARK  251  A    between atoms: _646  and  _647
REMARK  252  A    between atoms: _647  and  _648
REMARK  253  A    between atoms: _648  and  _649
REMARK  254  A    between atoms: _658  and  _660
REMARK  255  A    between atoms: _660  and  _661
REMARK  256  A    between atoms: _660  and  _663
REMARK  257  A    between atoms: _663  and  _664
REMARK  258  A    between atoms: _667  and  _669
REMARK  259  A    between atoms: _669  and  _670
REMARK  260  A    between atoms: _669  and  _672
REMARK  261  A    between atoms: _672  and  _673
REMARK  262  A    between atoms: _676  and  _678
REMARK  263  A    between atoms: _678  and  _679
REMARK  264  A    between atoms: _678  and  _681
REMARK  265  A    between atoms: _681  and  _682
REMARK  266  A    between atoms: _687  and  _689
REMARK  267  A    between atoms: _689  and  _690
REMARK  268  A    between atoms: _689  and  _692
REMARK  269  A    between atoms: _692  and  _693
REMARK                            x       y       z     vdW  Elec       q    Type
REMARK                         _______ _______ _______ _____ _____    ______ ____
ROOT
ATOM      1  CA  HIS A   2      45.549  29.392  14.762  0.00  0.00    +0.155 C 
ENDROOT
BRANCH   1   2
ATOM      2  C   HIS A   2      46.488  30.389  14.160  0.00  0.00    +0.244 C 
ATOM      3  N   PRO A   3      46.186  31.667  14.301  0.00  0.00    -0.272 N 
ATOM      4  CD  PRO A   3      44.956  32.182  14.922  0.00  0.00    +0.094 C 
ATOM      5  CG  PRO A   3      44.883  33.657  14.387  0.00  0.00    +0.024 C 
ATOM      6  CB  PRO A   3      46.337  34.059  14.153  0.00  0.00    +0.031 C 
ATOM      7  CA  PRO A   3      46.956  32.729  13.682  0.00  0.00    +0.152 C 
ATOM      8  O   HIS A   2      47.544  30.009  13.661  0.00  0.00    -0.273 OA
BRANCH   7   9
ATOM      9  C   PRO A   3      48.453  32.680  14.006  0.00  0.00    +0.241 C 
ATOM     10  N   SER A   4      48.865  32.201  15.179  0.00  0.00    -0.300 N 
ATOM     11  H   SER A   4      48.209  31.758  15.854  0.00  0.00    +0.150 HD
ATOM     12  O   PRO A   3      49.234  33.097  13.130  0.00  0.00    -0.273 OA
BRANCH  10  13
ATOM     13  CA  SER A   4      50.323  32.338  15.468  0.00  0.00    +0.134 C 
BRANCH  13  14
ATOM     14  C   SER A   4      51.156  31.426  14.589  0.00  0.00    +0.204 C 
ATOM     15  O   SER A   4      52.338  31.751  14.488  0.00  0.00    -0.218 OA
ENDBRANCH  13  14
BRANCH  13  16
ATOM     16  CB  SER A   4      50.572  32.065  16.967  0.00  0.00    +0.159 C 
BRANCH  16  17
ATOM     17  OG  SER A   4      50.237  30.662  17.197  0.00  0.00    -0.380 OA
ATOM     18  H   SER A   4      49.288  30.508  16.963  0.00  0.00    +0.211 HD
ENDBRANCH  16  17
ENDBRANCH  13  16
ENDBRANCH  10  13
ENDBRANCH   7   9
ENDBRANCH   1   2
BRANCH   1  20
ATOM     19  C   VAL A   1      44.556  28.196  12.835  0.00  0.00    +0.238 C 
ATOM     20  N   HIS A   2      45.377  28.232  13.887  0.00  0.00    -0.297 N 
ATOM     21  H   HIS A   2      45.932  27.378  14.099  0.00  0.00    +0.150 HD
ATOM     22  O   VAL A   1      43.935  29.275  12.447  0.00  0.00    -0.274 OA
BRANCH  19  23
ATOM     23  CA  VAL A   1      44.404  26.858  12.102  0.00  0.00    +0.145 C 
BRANCH  23  24
ATOM     24  CB  VAL A   1      42.937  26.319  12.224  0.00  0.00    +0.025 C 
ATOM     25  CG2 VAL A   1      42.679  26.187  13.734  0.00  0.00    +0.002 C 
ATOM     26  CG1 VAL A   1      42.763  24.947  11.587  0.00  0.00    +0.002 C 
ENDBRANCH  23  24
BRANCH  23  27
ATOM     27  N   VAL A   1      45.222  25.790  12.682  0.00  0.00    -0.238 NA
ATOM     28  H   VAL A   1      44.772  25.101  13.318  0.00  0.00    +0.142 HD
ENDBRANCH  23  27
ENDBRANCH  19  23
ENDBRANCH   1  20
BRANCH   1  29
ATOM     29  CB  HIS A   2      46.201  28.911  16.088  0.00  0.00    +0.076 C 
BRANCH  29  30
ATOM     30  CG  HIS A   2      46.193  29.907  17.187  0.00  0.00    +0.082 A 
ATOM     31  CD2 HIS A   2      45.171  30.337  17.980  0.00  0.00    +0.115 A 
ATOM     32  NE2 HIS A   2      45.652  31.331  18.811  0.00  0.00    -0.221 NA
ATOM     33  CE1 HIS A   2      46.939  31.465  18.532  0.00  0.00    +0.199 A 
ATOM     34  ND1 HIS A   2      47.289  30.608  17.594  0.00  0.00    -0.227 NA
ENDBRANCH  29  30
ENDBRANCH   1  29
TORSDOF 12
REMARK  Name = ../refined-set-2016/1b7h/1b7h_pocket.pdb
REMARK  269 active torsions:
REMARK  status: ('A' for Active; 'I' for Inactive)
REMARK    1  A    between atoms: _1  and  _3
REMARK    2  A    between atoms: _3  and  _4
REMARK    3  A    between atoms: _6  and  _8
REMARK    4  A    between atoms: _8  and  _9
REMARK    5  A    between atoms: _8  and  _11
REMARK    6  A    between atoms: _11  and  _12
REMARK    7  A    between atoms: _14  and  _16
REMARK    8  A    between atoms: _16  and  _17
REMARK    9  A    between atoms: _16  and  _19
REMARK   10  A    between atoms: _19  and  _20
REMARK   11  A    between atoms: _20  and  _21
REMARK   12  A    between atoms: _26  and  _28
REMARK   13  A    between atoms: _28  and  _29
REMARK   14  A    between atoms: _28  and  _31
REMARK   15  A    between atoms: _31  and  _32
REMARK   16  A    between atoms: _35  and  _37
REMARK   17  A    between atoms: _37  and  _38
REMARK   18  A    between atoms: _37  and  _40
REMARK   19  A    between atoms: _40  and  _41
REMARK   20  A    between atoms: _41  and  _42
REMARK   21  A    between atoms: _45  and  _47
REMARK   22  A    between atoms: _47  and  _48
REMARK   23  A    between atoms: _50  and  _52
REMARK   24  A    between atoms: _52  and  _53
REMARK   25  A    between atoms: _52  and  _55
REMARK   26  A    between atoms: _59  and  _60
REMARK   27  A    between atoms: _65  and  _67
REMARK   28  A    between atoms: _67  and  _68
REMARK   29  A    between atoms: _67  and  _70
REMARK   30  A    between atoms: _70  and  _71
REMARK   31  A    between atoms: _71  and  _72
REMARK   32  A    between atoms: _75  and  _77
REMARK   33  A    between atoms: _77  and  _78
REMARK   34  A    between atoms: _77  and  _80
REMARK   35  A    between atoms: _80  and  _81
REMARK   36  A    between atoms: _83  and  _85
REMARK   37  A    between atoms: _85  and  _86
REMARK   38  A    between atoms: _85  and  _88
REMARK   39  A    between atoms: _88  and  _89
REMARK   40  A    between atoms: _94  and  _96
REMARK   41  A    between atoms: _96  and  _97
REMARK   42  A    between atoms: _96  and  _99
REMARK   43  A    between atoms: _99  and  _100
REMARK   44  A    between atoms: _100  and  _101
REMARK   45  A    between atoms: _101  and  _102
REMARK   46  A    between atoms: _112  and  _113
REMARK   47  A    between atoms: _118  and  _120
REMARK   48  A    between atoms: _120  and  _121
REMARK   49  A    between atoms: _120  and  _123
REMARK   50  A    between atoms: _123  and  _124
REMARK   51  A    between atoms: _129  and  _130
REMARK   52  A    between atoms: _132  and  _134
REMARK   53  A    between atoms: _134  and  _135
REMARK   54  A    between atoms: _134  and  _137
REMARK   55  A    between atoms: _137  and  _138
REMARK   56  A    between atoms: _143  and  _144
REMARK   57  A    between atoms: _146  and  _148
REMARK   58  A    between atoms: _148  and  _149
REMARK   59  A    between atoms: _148  and  _151
REMARK   60  A    between atoms: _154  and  _156
REMARK   61  A    between atoms: _156  and  _157
REMARK   62  A    between atoms: _156  and  _159
REMARK   63  A    between atoms: _159  and  _160
REMARK   64  A    between atoms: _166  and  _167
REMARK   65  A    between atoms: _172  and  _174
REMARK   66  A    between atoms: _174  and  _175
REMARK   67  A    between atoms: _174  and  _177
REMARK   68  A    between atoms: _177  and  _178
REMARK   69  A    between atoms: _180  and  _182
REMARK   70  A    between atoms: _182  and  _183
REMARK   71  A    between atoms: _182  and  _185
REMARK   72  A    between atoms: _185  and  _186
REMARK   73  A    between atoms: _191  and  _192
REMARK   74  A    between atoms: _194  and  _196
REMARK   75  A    between atoms: _196  and  _197
REMARK   76  A    between atoms: _196  and  _199
REMARK   77  A    between atoms: _199  and  _200
REMARK   78  A    between atoms: _205  and  _207
REMARK   79  A    between atoms: _207  and  _208
REMARK   80  A    between atoms: _207  and  _210
REMARK   81  A    between atoms: _210  and  _211
REMARK   82  A    between atoms: _216  and  _218
REMARK   83  A    between atoms: _218  and  _219
REMARK   84  A    between atoms: _218  and  _221
REMARK   85  A    between atoms: _221  and  _222
REMARK   86  A    between atoms: _222  and  _223
REMARK   87  A    between atoms: _225  and  _227
REMARK   88  A    between atoms: _227  and  _228
REMARK   89  A    between atoms: _227  and  _230
REMARK   90  A    between atoms: _230  and  _231
REMARK   91  A    between atoms: _236  and  _237
REMARK   92  A    between atoms: _239  and  _241
REMARK   93  A    between atoms: _241  and  _242
REMARK   94  A    between atoms: _241  and  _244
REMARK   95  A    between atoms: _244  and  _245
REMARK   96  A    between atoms: _248  and  _250
REMARK   97  A    between atoms: _250  and  _251
REMARK   98  A    between atoms: _250  and  _253
REMARK   99  A    between atoms: _253  and  _254
REMARK  100  A    between atoms: _254  and  _484
REMARK  101  A    between atoms: _255  and  _257
REMARK  102  A    between atoms: _257  and  _258
REMARK  103  A    between atoms: _257  and  _260
REMARK  104  A    between atoms: _260  and  _261
REMARK  105  A    between atoms: _264  and  _266
REMARK  106  A    between atoms: _266  and  _267
REMARK  107  A    between atoms: _266  and  _269
REMARK  108  A    between atoms: _269  and  _270
REMARK  109  A    between atoms: _275  and  _276
REMARK  110  A    between atoms: _278  and  _280
REMARK  111  A    between atoms: _280  and  _281
REMARK  112  A    between atoms: _280  and  _283
REMARK  113  A    between atoms: _283  and  _284
REMARK  114  A    between atoms: _289  and  _290
REMARK  115  A    between atoms: _292  and  _294
REMARK  116  A    between atoms: _294  and  _295
REMARK  117  A    between atoms: _294  and  _297
REMARK  118  A    between atoms: _297  and  _298
REMARK  119  A    between atoms: _298  and  _299
REMARK  120  A    between atoms: _302  and  _304
REMARK  121  A    between atoms: _304  and  _305
REMARK  122  A    between atoms: _304  and  _307
REMARK  123  A    between atoms: _307  and  _308
REMARK  124  A    between atoms: _308  and  _309
REMARK  125  A    between atoms: _309  and  _310
REMARK  126  A    between atoms: _310  and  _311
REMARK  127  A    between atoms: _315  and  _317
REMARK  128  A    between atoms: _317  and  _318
REMARK  129  A    between atoms: _317  and  _320
REMARK  130  A    between atoms: _320  and  _321
REMARK  131  A    between atoms: _326  and  _327
REMARK  132  A    between atoms: _329  and  _331
REMARK  133  A    between atoms: _331  and  _332
REMARK  134  A    between atoms: _331  and  _334
REMARK  135  A    between atoms: _334  and  _335
REMARK  136  A    between atoms: _340  and  _342
REMARK  137  A    between atoms: _342  and  _343
REMARK  138  A    between atoms: _342  and  _345
REMARK  139  A    between atoms: _345  and  _346
REMARK  140  A    between atoms: _349  and  _351
REMARK  141  A    between atoms: _351  and  _352
REMARK  142  A    between atoms: _351  and  _354
REMARK  143  A    between atoms: _354  and  _355
REMARK  144  A    between atoms: _360  and  _362
REMARK  145  A    between atoms: _362  and  _363
REMARK  146  A    between atoms: _362  and  _365
REMARK  147  A    between atoms: _365  and  _366
REMARK  148  A    between atoms: _376  and  _378
REMARK  149  A    between atoms: _378  and  _379
REMARK  150  A    between atoms: _378  and  _381
REMARK  151  A    between atoms: _381  and  _382
REMARK  152  A    between atoms: _388  and  _390
REMARK  153  A    between atoms: _390  and  _391
REMARK  154  A    between atoms: _390  and  _393
REMARK  155  A    between atoms: _393  and  _394
REMARK  156  A    between atoms: _397  and  _399
REMARK  157  A    between atoms: _399  and  _400
REMARK  158  A    between atoms: _399  and  _402
REMARK  159  A    between atoms: _402  and  _403
REMARK  160  A    between atoms: _406  and  _408
REMARK  161  A    between atoms: _408  and  _409
REMARK  162  A    between atoms: _408  and  _411
REMARK  163  A    between atoms: _411  and  _412
REMARK  164  A    between atoms: _412  and  _413
REMARK  165  A    between atoms: _413  and  _414
REMARK  166  A    between atoms: _423  and  _425
REMARK  167  A    between atoms: _425  and  _426
REMARK  168  A    between atoms: _425  and  _428
REMARK  169  A    between atoms: _428  and  _429
REMARK  170  A    between atoms: _434  and  _436
REMARK  171  A    between atoms: _436  and  _437
REMARK  172  A    between atoms: _436  and  _439
REMARK  173  A    between atoms: _439  and  _440
REMARK  174  A    between atoms: _440  and  _441
REMARK  175  A    between atoms: _441  and  _442
REMARK  176  A    between atoms: _451  and  _453
REMARK  177  A    between atoms: _453  and  _454
REMARK  178  A    between atoms: _457  and  _459
REMARK  179  A    between atoms: _459  and  _460
REMARK  180  A    between atoms: _462  and  _464
REMARK  181  A    between atoms: _464  and  _465
REMARK  182  A    between atoms: _464  and  _467
REMARK  183  A    between atoms: _467  and  _468
REMARK  184  A    between atoms: _478  and  _480
REMARK  185  A    between atoms: _480  and  _481
REMARK  186  A    between atoms: _480  and  _483
REMARK  187  A    between atoms: _483  and  _484
REMARK  188  A    between atoms: _485  and  _487
REMARK  189  A    between atoms: _487  and  _488
REMARK  190  A    between atoms: _491  and  _493
REMARK  191  A    between atoms: _493  and  _494
REMARK  192  A    between atoms: _493  and  _496
REMARK  193  A    between atoms: _496  and  _497
REMARK  194  A    between atoms: _500  and  _502
REMARK  195  A    between atoms: _502  and  _503
REMARK  196  A    between atoms: _502  and  _505
REMARK  197  A    between atoms: _505  and  _506
REMARK  198  A    between atoms: _511  and  _512
REMARK  199  A    between atoms: _514  and  _516
REMARK  200  A    between atoms: _516  and  _517
REMARK  201  A    between atoms: _516  and  _519
REMARK  202  A    between atoms: _519  and  _520
REMARK  203  A    between atoms: _522  and  _524
REMARK  204  A    between atoms: _524  and  _525
REMARK  205  A    between atoms: _524  and  _527
REMARK  206  A    between atoms: _527  and  _528
REMARK  207  A    between atoms: _534  and  _536
REMARK  208  A    between atoms: _536  and  _537
REMARK  209  A    between atoms: _536  and  _539
REMARK  210  A    between atoms: _539  and  _540
REMARK  211  A    between atoms: _543  and  _545
REMARK  212  A    between atoms: _545  and  _546
REMARK  213  A    between atoms: _545  and  _548
REMARK  214  A    between atoms: _548  and  _549
REMARK  215  A    between atoms: _551  and  _553
REMARK  216  A    between atoms: _553  and  _554
REMARK  217  A    between atoms: _553  and  _556
REMARK  218  A    between atoms: _556  and  _557
REMARK  219  A    between atoms: _562  and  _564
REMARK  220  A    between atoms: _564  and  _565
REMARK  221  A    between atoms: _564  and  _567
REMARK  222  A    between atoms: _567  and  _568
REMARK  223  A    between atoms: _573  and  _575
REMARK  224  A    between atoms: _575  and  _576
REMARK  225  A    between atoms: _575  and  _578
REMARK  226  A    between atoms: _578  and  _579
REMARK  227  A    between atoms: _582  and  _584
REMARK  228  A    between atoms: _584  and  _585
REMARK  229  A    between atoms: _588  and  _590
REMARK  230  A    between atoms: _590  and  _591
REMARK  231  A    between atoms: _590  and  _593
REMARK  232  A    between atoms: _593  and  _594
REMARK  233  A    between atoms: _599  and  _600
REMARK  234  A    between atoms: _602  and  _604
REMARK  235  A    between atoms: _604  and  _605
REMARK  236  A    between atoms: _604  and  _607
REMARK  237  A    between atoms: _607  and  _608
REMARK  238  A    between atoms: _613  and  _614
REMARK  239  A    between atoms: _616  and  _618
REMARK  240  A    between atoms: _618  and  _619
REMARK  241  A    between atoms: _618  and  _621
REMARK  242  A    between atoms: _624  and  _626
REMARK  243  A    between atoms: _626  and  _627
REMARK  244  A    between atoms: _626  and  _629
REMARK  245  A    between atoms: _629  and  _630
REMARK  246  A    between atoms: _635  and  _637
REMARK  247  A    between atoms: _637  and  _638
REMARK  248  A    between atoms: _641  and  _643
REMARK  249  A    between atoms: _643  and  _644
REMARK  250  A    between atoms: _643  and  _646
REMARK  251  A    between atoms: _646  and  _647
REMARK  252  A    between atoms: _647  and  _648
REMARK  253  A    between atoms: _648  and  _649
REMARK  254  A    between atoms: _658  and  _660
REMARK  255  A    between atoms: _660  and  _661
REMARK  256  A    between atoms: _660  and  _663
REMARK  257  A    between atoms: _663  and  _664
REMARK  258  A    between atoms: _667  and  _669
REMARK  259  A    between atoms: _669  and  _670
REMARK  260  A    between atoms: _669  and  _672
REMARK  261  A    between atoms: _672  and  _673
REMARK  262  A    between atoms: _676  and  _678
REMARK  263  A    between atoms: _678  and  _679
REMARK  264  A    between atoms: _678  and  _681
REMARK  265  A    between atoms: _681  and  _682
REMARK  266  A    between atoms: _687  and  _689
REMARK  267  A    between atoms: _689  and  _690
REMARK  268  A    between atoms: _689  and  _692
REMARK  269  A    between atoms: _692  and  _693
REMARK                            x       y       z     vdW  Elec       q    Type
REMARK                         _______ _______ _______ _____ _____    ______ ____
ROOT
ATOM      1  CA  ASN A   2      29.844  38.472  19.958  0.00  0.00    +0.158 C 
ENDROOT
BRANCH   1   3
ATOM      2  C   TYR A   1      29.983  40.504  18.655  0.00  0.00    +0.239 C 
ATOM      3  N   ASN A   2      30.560  39.400  19.142  0.00  0.00    -0.297 N 
ATOM      4  H   ASN A   2      31.559  39.212  18.920  0.00  0.00    +0.150 HD
ATOM      5  O   TYR A   1      28.813  40.802  19.016  0.00  0.00    -0.274 OA
BRANCH   2   6
ATOM      6  CA  TYR A   1      30.762  41.440  17.745  0.00  0.00    +0.149 C 
BRANCH   6   7
ATOM      7  N   TYR A   1      29.736  42.280  17.061  0.00  0.00    -0.238 NA
ATOM      8  H   TYR A   1      29.656  43.298  17.259  0.00  0.00    +0.142 HD
ENDBRANCH   6   7
BRANCH   6   9
ATOM      9  CB  TYR A   1      31.733  42.335  18.537  0.00  0.00    +0.053 C 
BRANCH   9  10
ATOM     10  CG  TYR A   1      32.793  41.535  19.320  0.00  0.00    -0.020 A 
ATOM     11  CD2 TYR A   1      32.760  41.479  20.700  0.00  0.00    -0.001 A 
ATOM     12  CE2 TYR A   1      33.738  40.798  21.419  0.00  0.00    +0.036 A 
ATOM     13  CZ  TYR A   1      34.763  40.168  20.752  0.00  0.00    +0.134 A 
ATOM     14  CE1 TYR A   1      34.822  40.221  19.382  0.00  0.00    +0.036 A 
ATOM     15  CD1 TYR A   1      33.809  40.869  18.670  0.00  0.00    -0.001 A 
BRANCH  13  16
ATOM     16  OH  TYR A   1      35.721  39.453  21.470  0.00  0.00    -0.506 OA
ATOM     17  HH  TYR A   1      36.181  40.062  22.101  0.00  0.00    +0.292 HD
ENDBRANCH  13  16
ENDBRANCH   9  10
ENDBRANCH   6   9
ENDBRANCH   2   6
ENDBRANCH   1   3
BRANCH   1  18
ATOM     18  C   ASN A   2      30.026  38.631  21.470  0.00  0.00    +0.241 C 
ATOM     19  O   ASN A   2      30.482  37.779  22.170  0.00  0.00    -0.273 OA
ATOM     20  N   ASN A   3      29.604  39.778  21.977  0.00  0.00    -0.297 N 
ATOM     21  H   ASN A   3      29.349  40.495  21.269  0.00  0.00    +0.150 HD
BRANCH  20  22
ATOM     22  CA  ASN A   3      29.440  40.196  23.326  0.00  0.00    +0.158 C 
BRANCH  22  23
ATOM     23  C   ASN A   3      28.056  40.910  23.237  0.00  0.00    +0.241 C 
ATOM     24  N   MET A   4      27.062  40.434  23.967  0.00  0.00    -0.298 N 
ATOM     25  H   MET A   4      27.202  39.608  24.583  0.00  0.00    +0.150 HD
ATOM     26  O   ASN A   3      28.034  41.879  22.475  0.00  0.00    -0.273 OA
BRANCH  24  27
ATOM     27  CA  MET A   4      25.751  41.103  23.887  0.00  0.00    +0.138 C 
BRANCH  27  28
ATOM     28  C   MET A   4      25.506  41.969  25.101  0.00  0.00    +0.227 C 
ATOM     29  O   MET A   4      25.932  41.648  26.192  0.00  0.00    -0.286 OA
ENDBRANCH  27  28
BRANCH  27  30
ATOM     30  CB  MET A   4      24.665  40.068  23.695  0.00  0.00    +0.039 C 
BRANCH  30  31
ATOM     31  CG  MET A   4      24.385  39.466  22.350  0.00  0.00    +0.060 C 
BRANCH  31  32
ATOM     32  SD  MET A   4      23.812  40.627  21.097  0.00  0.00    -0.139 S 
ATOM     33  CE  MET A   4      25.289  41.556  20.724  0.00  0.00    +0.069 C 
ENDBRANCH  31  32
ENDBRANCH  30  31
ENDBRANCH  27  30
ENDBRANCH  24  27
ENDBRANCH  22  23
BRANCH  22  34
ATOM     34  CB  ASN A   3      30.447  41.222  23.817  0.00  0.00    +0.114 C 
BRANCH  34  35
ATOM     35  CG  ASN A   3      31.797  40.716  24.310  0.00  0.00    +0.222 C 
ATOM     36  OD1 ASN A   3      31.922  39.560  24.701  0.00  0.00    -0.275 OA
ATOM     37  ND2 ASN A   3      32.801  41.601  24.384  0.00  0.00    -0.329 N 
ATOM     38 HD21 ASN A   3      33.718  41.315  24.782  0.00  0.00    +0.145 HD
ATOM     39 HD22 ASN A   3      32.663  42.574  24.044  0.00  0.00    +0.145 HD
ENDBRANCH  34  35
ENDBRANCH  22  34
ENDBRANCH  20  22
ENDBRANCH   1  18
BRANCH   1  40
ATOM     40  CB  ASN A   2      30.054  37.017  19.529  0.00  0.00    +0.114 C 
BRANCH  40  41
ATOM     41  CG  ASN A   2      31.523  36.604  19.454  0.00  0.00    +0.222 C 
ATOM     42  OD1 ASN A   2      32.439  37.439  19.531  0.00  0.00    -0.275 OA
ATOM     43  ND2 ASN A   2      31.727  35.328  19.276  0.00  0.00    -0.329 N 
ATOM     44 HD21 ASN A   2      30.919  34.675  19.219  0.00  0.00    +0.145 HD
ATOM     45 HD22 ASN A   2      32.697  34.963  19.191  0.00  0.00    +0.145 HD
ENDBRANCH  40  41
ENDBRANCH   1  40
TORSDOF 18
REMARK  Name = ../refined-set-2016/1b7h/1b7h_pocket.pdb
REMARK  269 active torsions:
REMARK  status: ('A' for Active; 'I' for Inactive)
REMARK    1  A    between atoms: _1  and  _3
REMARK    2  A    between atoms: _3  and  _4
REMARK    3  A    between atoms: _6  and  _8
REMARK    4  A    between atoms: _8  and  _9
REMARK    5  A    between atoms: _8  and  _11
REMARK    6  A    between atoms: _11  and  _12
REMARK    7  A    between atoms: _14  and  _16
REMARK    8  A    between atoms: _16  and  _17
REMARK    9  A    between atoms: _16  and  _19
REMARK   10  A    between atoms: _19  and  _20
REMARK   11  A    between atoms: _20  and  _21
REMARK   12  A    between atoms: _26  and  _28
REMARK   13  A    between atoms: _28  and  _29
REMARK   14  A    between atoms: _28  and  _31
REMARK   15  A    between atoms: _31  and  _32
REMARK   16  A    between atoms: _35  and  _37
REMARK   17  A    between atoms: _37  and  _38
REMARK   18  A    between atoms: _37  and  _40
REMARK   19  A    between atoms: _40  and  _41
REMARK   20  A    between atoms: _41  and  _42
REMARK   21  A    between atoms: _45  and  _47
REMARK   22  A    between atoms: _47  and  _48
REMARK   23  A    between atoms: _50  and  _52
REMARK   24  A    between atoms: _52  and  _53
REMARK   25  A    between atoms: _52  and  _55
REMARK   26  A    between atoms: _59  and  _60
REMARK   27  A    between atoms: _65  and  _67
REMARK   28  A    between atoms: _67  and  _68
REMARK   29  A    between atoms: _67  and  _70
REMARK   30  A    between atoms: _70  and  _71
REMARK   31  A    between atoms: _71  and  _72
REMARK   32  A    between atoms: _75  and  _77
REMARK   33  A    between atoms: _77  and  _78
REMARK   34  A    between atoms: _77  and  _80
REMARK   35  A    between atoms: _80  and  _81
REMARK   36  A    between atoms: _83  and  _85
REMARK   37  A    between atoms: _85  and  _86
REMARK   38  A    between atoms: _85  and  _88
REMARK   39  A    between atoms: _88  and  _89
REMARK   40  A    between atoms: _94  and  _96
REMARK   41  A    between atoms: _96  and  _97
REMARK   42  A    between atoms: _96  and  _99
REMARK   43  A    between atoms: _99  and  _100
REMARK   44  A    between atoms: _100  and  _101
REMARK   45  A    between atoms: _101  and  _102
REMARK   46  A    between atoms: _112  and  _113
REMARK   47  A    between atoms: _118  and  _120
REMARK   48  A    between atoms: _120  and  _121
REMARK   49  A    between atoms: _120  and  _123
REMARK   50  A    between atoms: _123  and  _124
REMARK   51  A    between atoms: _129  and  _130
REMARK   52  A    between atoms: _132  and  _134
REMARK   53  A    between atoms: _134  and  _135
REMARK   54  A    between atoms: _134  and  _137
REMARK   55  A    between atoms: _137  and  _138
REMARK   56  A    between atoms: _143  and  _144
REMARK   57  A    between atoms: _146  and  _148
REMARK   58  A    between atoms: _148  and  _149
REMARK   59  A    between atoms: _148  and  _151
REMARK   60  A    between atoms: _154  and  _156
REMARK   61  A    between atoms: _156  and  _157
REMARK   62  A    between atoms: _156  and  _159
REMARK   63  A    between atoms: _159  and  _160
REMARK   64  A    between atoms: _166  and  _167
REMARK   65  A    between atoms: _172  and  _174
REMARK   66  A    between atoms: _174  and  _175
REMARK   67  A    between atoms: _174  and  _177
REMARK   68  A    between atoms: _177  and  _178
REMARK   69  A    between atoms: _180  and  _182
REMARK   70  A    between atoms: _182  and  _183
REMARK   71  A    between atoms: _182  and  _185
REMARK   72  A    between atoms: _185  and  _186
REMARK   73  A    between atoms: _191  and  _192
REMARK   74  A    between atoms: _194  and  _196
REMARK   75  A    between atoms: _196  and  _197
REMARK   76  A    between atoms: _196  and  _199
REMARK   77  A    between atoms: _199  and  _200
REMARK   78  A    between atoms: _205  and  _207
REMARK   79  A    between atoms: _207  and  _208
REMARK   80  A    between atoms: _207  and  _210
REMARK   81  A    between atoms: _210  and  _211
REMARK   82  A    between atoms: _216  and  _218
REMARK   83  A    between atoms: _218  and  _219
REMARK   84  A    between atoms: _218  and  _221
REMARK   85  A    between atoms: _221  and  _222
REMARK   86  A    between atoms: _222  and  _223
REMARK   87  A    between atoms: _225  and  _227
REMARK   88  A    between atoms: _227  and  _228
REMARK   89  A    between atoms: _227  and  _230
REMARK   90  A    between atoms: _230  and  _231
REMARK   91  A    between atoms: _236  and  _237
REMARK   92  A    between atoms: _239  and  _241
REMARK   93  A    between atoms: _241  and  _242
REMARK   94  A    between atoms: _241  and  _244
REMARK   95  A    between atoms: _244  and  _245
REMARK   96  A    between atoms: _248  and  _250
REMARK   97  A    between atoms: _250  and  _251
REMARK   98  A    between atoms: _250  and  _253
REMARK   99  A    between atoms: _253  and  _254
REMARK  100  A    between atoms: _254  and  _484
REMARK  101  A    between atoms: _255  and  _257
REMARK  102  A    between atoms: _257  and  _258
REMARK  103  A    between atoms: _257  and  _260
REMARK  104  A    between atoms: _260  and  _261
REMARK  105  A    between atoms: _264  and  _266
REMARK  106  A    between atoms: _266  and  _267
REMARK  107  A    between atoms: _266  and  _269
REMARK  108  A    between atoms: _269  and  _270
REMARK  109  A    between atoms: _275  and  _276
REMARK  110  A    between atoms: _278  and  _280
REMARK  111  A    between atoms: _280  and  _281
REMARK  112  A    between atoms: _280  and  _283
REMARK  113  A    between atoms: _283  and  _284
REMARK  114  A    between atoms: _289  and  _290
REMARK  115  A    between atoms: _292  and  _294
REMARK  116  A    between atoms: _294  and  _295
REMARK  117  A    between atoms: _294  and  _297
REMARK  118  A    between atoms: _297  and  _298
REMARK  119  A    between atoms: _298  and  _299
REMARK  120  A    between atoms: _302  and  _304
REMARK  121  A    between atoms: _304  and  _305
REMARK  122  A    between atoms: _304  and  _307
REMARK  123  A    between atoms: _307  and  _308
REMARK  124  A    between atoms: _308  and  _309
REMARK  125  A    between atoms: _309  and  _310
REMARK  126  A    between atoms: _310  and  _311
REMARK  127  A    between atoms: _315  and  _317
REMARK  128  A    between atoms: _317  and  _318
REMARK  129  A    between atoms: _317  and  _320
REMARK  130  A    between atoms: _320  and  _321
REMARK  131  A    between atoms: _326  and  _327
REMARK  132  A    between atoms: _329  and  _331
REMARK  133  A    between atoms: _331  and  _332
REMARK  134  A    between atoms: _331  and  _334
REMARK  135  A    between atoms: _334  and  _335
REMARK  136  A    between atoms: _340  and  _342
REMARK  137  A    between atoms: _342  and  _343
REMARK  138  A    between atoms: _342  and  _345
REMARK  139  A    between atoms: _345  and  _346
REMARK  140  A    between atoms: _349  and  _351
REMARK  141  A    between atoms: _351  and  _352
REMARK  142  A    between atoms: _351  and  _354
REMARK  143  A    between atoms: _354  and  _355
REMARK  144  A    between atoms: _360  and  _362
REMARK  145  A    between atoms: _362  and  _363
REMARK  146  A    between atoms: _362  and  _365
REMARK  147  A    between atoms: _365  and  _366
REMARK  148  A    between atoms: _376  and  _378
REMARK  149  A    between atoms: _378  and  _379
REMARK  150  A    between atoms: _378  and  _381
REMARK  151  A    between atoms: _381  and  _382
REMARK  152  A    between atoms: _388  and  _390
REMARK  153  A    between atoms: _390  and  _391
REMARK  154  A    between atoms: _390  and  _393
REMARK  155  A    between atoms: _393  and  _394
REMARK  156  A    between atoms: _397  and  _399
REMARK  157  A    between atoms: _399  and  _400
REMARK  158  A    between atoms: _399  and  _402
REMARK  159  A    between atoms: _402  and  _403
REMARK  160  A    between atoms: _406  and  _408
REMARK  161  A    between atoms: _408  and  _409
REMARK  162  A    between atoms: _408  and  _411
REMARK  163  A    between atoms: _411  and  _412
REMARK  164  A    between atoms: _412  and  _413
REMARK  165  A    between atoms: _413  and  _414
REMARK  166  A    between atoms: _423  and  _425
REMARK  167  A    between atoms: _425  and  _426
REMARK  168  A    between atoms: _425  and  _428
REMARK  169  A    between atoms: _428  and  _429
REMARK  170  A    between atoms: _434  and  _436
REMARK  171  A    between atoms: _436  and  _437
REMARK  172  A    between atoms: _436  and  _439
REMARK  173  A    between atoms: _439  and  _440
REMARK  174  A    between atoms: _440  and  _441
REMARK  175  A    between atoms: _441  and  _442
REMARK  176  A    between atoms: _451  and  _453
REMARK  177  A    between atoms: _453  and  _454
REMARK  178  A    between atoms: _457  and  _459
REMARK  179  A    between atoms: _459  and  _460
REMARK  180  A    between atoms: _462  and  _464
REMARK  181  A    between atoms: _464  and  _465
REMARK  182  A    between atoms: _464  and  _467
REMARK  183  A    between atoms: _467  and  _468
REMARK  184  A    between atoms: _478  and  _480
REMARK  185  A    between atoms: _480  and  _481
REMARK  186  A    between atoms: _480  and  _483
REMARK  187  A    between atoms: _483  and  _484
REMARK  188  A    between atoms: _485  and  _487
REMARK  189  A    between atoms: _487  and  _488
REMARK  190  A    between atoms: _491  and  _493
REMARK  191  A    between atoms: _493  and  _494
REMARK  192  A    between atoms: _493  and  _496
REMARK  193  A    between atoms: _496  and  _497
REMARK  194  A    between atoms: _500  and  _502
REMARK  195  A    between atoms: _502  and  _503
REMARK  196  A    between atoms: _502  and  _505
REMARK  197  A    between atoms: _505  and  _506
REMARK  198  A    between atoms: _511  and  _512
REMARK  199  A    between atoms: _514  and  _516
REMARK  200  A    between atoms: _516  and  _517
REMARK  201  A    between atoms: _516  and  _519
REMARK  202  A    between atoms: _519  and  _520
REMARK  203  A    between atoms: _522  and  _524
REMARK  204  A    between atoms: _524  and  _525
REMARK  205  A    between atoms: _524  and  _527
REMARK  206  A    between atoms: _527  and  _528
REMARK  207  A    between atoms: _534  and  _536
REMARK  208  A    between atoms: _536  and  _537
REMARK  209  A    between atoms: _536  and  _539
REMARK  210  A    between atoms: _539  and  _540
REMARK  211  A    between atoms: _543  and  _545
REMARK  212  A    between atoms: _545  and  _546
REMARK  213  A    between atoms: _545  and  _548
REMARK  214  A    between atoms: _548  and  _549
REMARK  215  A    between atoms: _551  and  _553
REMARK  216  A    between atoms: _553  and  _554
REMARK  217  A    between atoms: _553  and  _556
REMARK  218  A    between atoms: _556  and  _557
REMARK  219  A    between atoms: _562  and  _564
REMARK  220  A    between atoms: _564  and  _565
REMARK  221  A    between atoms: _564  and  _567
REMARK  222  A    between atoms: _567  and  _568
REMARK  223  A    between atoms: _573  and  _575
REMARK  224  A    between atoms: _575  and  _576
REMARK  225  A    between atoms: _575  and  _578
REMARK  226  A    between atoms: _578  and  _579
REMARK  227  A    between atoms: _582  and  _584
REMARK  228  A    between atoms: _584  and  _585
REMARK  229  A    between atoms: _588  and  _590
REMARK  230  A    between atoms: _590  and  _591
REMARK  231  A    between atoms: _590  and  _593
REMARK  232  A    between atoms: _593  and  _594
REMARK  233  A    between atoms: _599  and  _600
REMARK  234  A    between atoms: _602  and  _604
REMARK  235  A    between atoms: _604  and  _605
REMARK  236  A    between atoms: _604  and  _607
REMARK  237  A    between atoms: _607  and  _608
REMARK  238  A    between atoms: _613  and  _614
REMARK  239  A    between atoms: _616  and  _618
REMARK  240  A    between atoms: _618  and  _619
REMARK  241  A    between atoms: _618  and  _621
REMARK  242  A    between atoms: _624  and  _626
REMARK  243  A    between atoms: _626  and  _627
REMARK  244  A    between atoms: _626  and  _629
REMARK  245  A    between atoms: _629  and  _630
REMARK  246  A    between atoms: _635  and  _637
REMARK  247  A    between atoms: _637  and  _638
REMARK  248  A    between atoms: _641  and  _643
REMARK  249  A    between atoms: _643  and  _644
REMARK  250  A    between atoms: _643  and  _646
REMARK  251  A    between atoms: _646  and  _647
REMARK  252  A    between atoms: _647  and  _648
REMARK  253  A    between atoms: _648  and  _649
REMARK  254  A    between atoms: _658  and  _660
REMARK  255  A    between atoms: _660  and  _661
REMARK  256  A    between atoms: _660  and  _663
REMARK  257  A    between atoms: _663  and  _664
REMARK  258  A    between atoms: _667  and  _669
REMARK  259  A    between atoms: _669  and  _670
REMARK  260  A    between atoms: _669  and  _672
REMARK  261  A    between atoms: _672  and  _673
REMARK  262  A    between atoms: _676  and  _678
REMARK  263  A    between atoms: _678  and  _679
REMARK  264  A    between atoms: _678  and  _681
REMARK  265  A    between atoms: _681  and  _682
REMARK  266  A    between atoms: _687  and  _689
REMARK  267  A    between atoms: _689  and  _690
REMARK  268  A    between atoms: _689  and  _692
REMARK  269  A    between atoms: _692  and  _693
REMARK                            x       y       z     vdW  Elec       q    Type
REMARK                         _______ _______ _______ _____ _____    ______ ____
ROOT
ATOM      1  CA  CYS A   5      38.313  30.687  24.094  0.00  0.00    +0.160 C 
ENDROOT
BRANCH   1   2
ATOM      2  N   CYS A   5      39.035  31.439  25.066  0.00  0.00    -0.296 N 
ATOM      3  C   TRP A   4      38.800  31.378  26.388  0.00  0.00    +0.241 C 
ATOM      4  O   TRP A   4      37.911  30.694  26.897  0.00  0.00    -0.273 OA
ATOM      5  H   CYS A   5      39.789  32.073  24.732  0.00  0.00    +0.150 HD
BRANCH   3   6
ATOM      6  CA  TRP A   4      39.670  32.205  27.339  0.00  0.00    +0.153 C 
BRANCH   6   7
ATOM      7  N   TRP A   4      38.810  32.987  28.199  0.00  0.00    -0.297 N 
ATOM      8  H   TRP A   4      38.160  32.501  28.849  0.00  0.00    +0.150 HD
ATOM      9  C   GLY A   3      38.835  34.328  28.175  0.00  0.00    +0.243 C 
ATOM     10  O   GLY A   3      39.642  34.949  27.526  0.00  0.00    -0.273 OA
BRANCH   9  11
ATOM     11  CA  GLY A   3      37.826  35.085  29.027  0.00  0.00    +0.176 C 
BRANCH  11  12
ATOM     12  N   GLY A   3      38.456  36.015  29.915  0.00  0.00    -0.295 N 
ATOM     13  C   ALA A   2      38.027  36.327  31.122  0.00  0.00    +0.241 C 
ATOM     14  O   ALA A   2      36.965  35.893  31.557  0.00  0.00    -0.273 OA
ATOM     15  H   GLY A   3      39.323  36.483  29.581  0.00  0.00    +0.150 HD
BRANCH  13  16
ATOM     16  CA  ALA A   2      38.926  37.293  31.867  0.00  0.00    +0.149 C 
ATOM     17  CB  ALA A   2      40.045  36.398  32.475  0.00  0.00    +0.031 C 
BRANCH  16  18
ATOM     18  N   ALA A   2      38.191  38.025  32.896  0.00  0.00    -0.297 N 
ATOM     19  H   ALA A   2      37.341  37.623  33.339  0.00  0.00    +0.150 HD
ATOM     20  C   ARG A   1      38.652  39.235  33.249  0.00  0.00    +0.238 C 
ATOM     21  O   ARG A   1      39.643  39.846  32.777  0.00  0.00    -0.274 OA
BRANCH  20  22
ATOM     22  CA  ARG A   1      37.902  39.900  34.403  0.00  0.00    +0.145 C 
BRANCH  22  23
ATOM     23  N   ARG A   1      38.929  40.586  35.179  0.00  0.00    -0.238 NA
ATOM     24  H   ARG A   1      38.947  41.626  35.190  0.00  0.00    +0.142 HD
ENDBRANCH  22  23
BRANCH  22  25
ATOM     25  CB  ARG A   1      36.972  41.005  33.946  0.00  0.00    +0.030 C 
BRANCH  25  26
ATOM     26  CG  ARG A   1      35.849  40.520  33.058  0.00  0.00    +0.045 C 
BRANCH  26  27
ATOM     27  CD  ARG A   1      36.336  40.864  31.660  0.00  0.00    +0.174 C 
BRANCH  27  28
ATOM     28  NE  ARG A   1      36.157  39.781  30.795  0.00  0.00    -0.265 N 
ATOM     29  HE  ARG A   1      35.567  39.009  31.166  0.00  0.00    +0.259 HD
ATOM     30  CZ  ARG A   1      36.634  39.593  29.561  0.00  0.00    +0.342 C 
ATOM     31  NH2 ARG A   1      36.196  38.415  29.176  0.00  0.00    -0.292 N 
ATOM     32 HH21 ARG A   1      35.601  37.848  29.813  0.00  0.00    +0.255 HD
ATOM     33 HH22 ARG A   1      36.444  38.050  28.234  0.00  0.00    +0.255 HD
ATOM     34  NH1 ARG A   1      37.387  40.293  28.716  0.00  0.00    -0.292 N 
ATOM     35 HH11 ARG A   1      37.742  41.231  28.991  0.00  0.00    +0.255 HD
ATOM     36 HH12 ARG A   1      37.620  39.902  27.781  0.00  0.00    +0.255 HD
ENDBRANCH  27  28
ENDBRANCH  26  27
ENDBRANCH  25  26
ENDBRANCH  22  25
ENDBRANCH  20  22
ENDBRANCH  16  18
ENDBRANCH  13  16
ENDBRANCH  11  12
ENDBRANCH   9  11
ENDBRANCH   6   7
BRANCH   6  37
ATOM     37  CB  TRP A   4      40.587  31.273  28.164  0.00  0.00    +0.057 C 
BRANCH  37  38
ATOM     38  CG  TRP A   4      41.607  30.654  27.230  0.00  0.00    -0.002 A 
ATOM     39  CD1 TRP A   4      41.607  29.352  26.835  0.00  0.00    +0.068 A 
ATOM     40  NE1 TRP A   4      42.694  29.120  26.030  0.00  0.00    -0.352 N 
ATOM     41  CE2 TRP A   4      43.406  30.306  25.876  0.00  0.00    +0.056 A 
ATOM     42  CZ2 TRP A   4      44.574  30.528  25.112  0.00  0.00    +0.017 A 
ATOM     43  CH2 TRP A   4      45.082  31.827  25.209  0.00  0.00    +0.001 A 
ATOM     44  CZ3 TRP A   4      44.444  32.814  25.981  0.00  0.00    +0.000 A 
ATOM     45  CE3 TRP A   4      43.287  32.584  26.711  0.00  0.00    +0.001 A 
ATOM     46  HE1 TRP A   4      42.945  28.205  25.604  0.00  0.00    +0.166 HD
ATOM     47  CD2 TRP A   4      42.764  31.272  26.636  0.00  0.00    +0.013 A 
ENDBRANCH  37  38
ENDBRANCH   6  37
ENDBRANCH   3   6
ENDBRANCH   1   2
BRANCH   1  48
ATOM     48  C   CYS A   5      39.345  29.710  23.474  0.00  0.00    +0.242 C 
ATOM     49  O   CYS A   5      40.553  30.089  23.414  0.00  0.00    -0.273 OA
ATOM     50  N   ALA A   6      38.867  28.521  23.188  0.00  0.00    -0.297 N 
ATOM     51  H   ALA A   6      37.848  28.334  23.283  0.00  0.00    +0.150 HD
BRANCH  50  52
ATOM     52  CA  ALA A   6      39.759  27.467  22.740  0.00  0.00    +0.149 C 
ATOM     53  CB  ALA A   6      39.001  26.151  22.494  0.00  0.00    +0.031 C 
BRANCH  52  54
ATOM     54  C   ALA A   6      40.445  27.872  21.426  0.00  0.00    +0.241 C 
ATOM     55  N   ASP A   7      41.679  27.412  21.193  0.00  0.00    -0.297 N 
ATOM     56  H   ASP A   7      42.168  26.860  21.926  0.00  0.00    +0.150 HD
ATOM     57  O   ALA A   6      39.772  28.548  20.665  0.00  0.00    -0.273 OA
BRANCH  55  58
ATOM     58  CA  ASP A   7      42.360  27.679  19.903  0.00  0.00    +0.160 C 
BRANCH  58  59
ATOM     59  C   ASP A   7      42.259  26.426  19.046  0.00  0.00    +0.241 C 
ATOM     60  N   TYR A   8      42.044  25.290  19.712  0.00  0.00    -0.298 N 
ATOM     61  H   TYR A   8      42.116  25.309  20.749  0.00  0.00    +0.150 HD
ATOM     62  O   ASP A   7      42.321  26.385  17.817  0.00  0.00    -0.273 OA
BRANCH  60  63
ATOM     63  CA  TYR A   8      41.715  24.025  19.071  0.00  0.00    +0.141 C 
BRANCH  63  64
ATOM     64  C   TYR A   8      40.772  23.282  19.967  0.00  0.00    +0.227 C 
ATOM     65  O   TYR A   8      40.806  23.549  21.194  0.00  0.00    -0.286 OA
ENDBRANCH  63  64
BRANCH  63  66
ATOM     66  CB  TYR A   8      42.949  23.195  18.618  0.00  0.00    +0.054 C 
BRANCH  66  67
ATOM     67  CG  TYR A   8      43.923  22.970  19.743  0.00  0.00    -0.020 A 
ATOM     68  CD2 TYR A   8      43.911  21.800  20.473  0.00  0.00    -0.001 A 
ATOM     69  CE2 TYR A   8      44.820  21.628  21.519  0.00  0.00    +0.036 A 
ATOM     70  CZ  TYR A   8      45.703  22.620  21.784  0.00  0.00    +0.134 A 
ATOM     71  CE1 TYR A   8      45.697  23.861  21.119  0.00  0.00    +0.036 A 
ATOM     72  CD1 TYR A   8      44.801  24.015  20.091  0.00  0.00    -0.001 A 
BRANCH  70  73
ATOM     73  OH  TYR A   8      46.614  22.432  22.796  0.00  0.00    -0.506 OA
ATOM     74  HH  TYR A   8      46.506  21.522  23.171  0.00  0.00    +0.292 HD
ENDBRANCH  70  73
ENDBRANCH  66  67
ENDBRANCH  63  66
ENDBRANCH  60  63
ENDBRANCH  58  59
BRANCH  58  75
ATOM     75  CB  ASP A   7      43.870  27.999  20.138  0.00  0.00    +0.143 C 
BRANCH  75  76
ATOM     76  CG  ASP A   7      43.962  29.276  20.957  0.00  0.00    +0.367 C 
ATOM     77  OD2 ASP A   7      44.867  29.295  21.829  0.00  0.00    -0.246 OA
ATOM     78  OD1 ASP A   7      43.199  30.271  20.694  0.00  0.00    -0.246 OA
ENDBRANCH  75  76
ENDBRANCH  58  75
ENDBRANCH  55  58
ENDBRANCH  52  54
ENDBRANCH  50  52
ENDBRANCH   1  48
BRANCH   1  79
ATOM     79  CB  CYS A   5      37.799  31.620  22.964  0.00  0.00    +0.098 C 
BRANCH  79  80
ATOM     80  SG  CYS A   5      36.458  32.719  23.563  0.00  0.00    -0.080 S 
BRANCH  80  81
ATOM     81  SG  GLY A   3      34.952  31.353  23.708  0.00  0.00    -0.080 S 
BRANCH  81  82
ATOM     82  CB  GLY A   3      34.668  31.207  25.461  0.00  0.00    +0.098 C 
BRANCH  82  83
ATOM     83  CA  GLY A   3      34.922  29.804  26.027  0.00  0.00    +0.160 C 
BRANCH  83  84
ATOM     84  C   GLY A   3      34.467  29.808  27.458  0.00  0.00    +0.242 C 
ATOM     85  N   TRP A   4      35.339  30.280  28.328  0.00  0.00    -0.295 N 
ATOM     86  H   TRP A   4      36.270  30.602  27.995  0.00  0.00    +0.150 HD
ATOM     87  O   GLY A   3      33.328  29.415  27.776  0.00  0.00    -0.273 OA
BRANCH  85  88
ATOM     88  CA  TRP A   4      35.016  30.359  29.766  0.00  0.00    +0.176 C 
BRANCH  88  89
ATOM     89  C   TRP A   4      35.277  31.770  30.258  0.00  0.00    +0.243 C 
ATOM     90  N   CYS A   5      34.349  32.309  30.988  0.00  0.00    -0.297 N 
ATOM     91  H   CYS A   5      33.504  31.727  31.160  0.00  0.00    +0.150 HD
ATOM     92  O   TRP A   4      36.335  32.391  30.075  0.00  0.00    -0.273 OA
BRANCH  90  93
ATOM     93  CA  CYS A   5      34.352  33.627  31.592  0.00  0.00    +0.153 C 
BRANCH  93  94
ATOM     94  C   CYS A   5      34.752  33.359  33.065  0.00  0.00    +0.241 C 
ATOM     95  O   CYS A   5      34.232  32.409  33.635  0.00  0.00    -0.273 OA
ATOM     96  N   ALA A   6      35.798  34.055  33.509  0.00  0.00    -0.298 N 
ATOM     97  H   ALA A   6      36.270  34.751  32.898  0.00  0.00    +0.150 HD
BRANCH  96  98
ATOM     98  CA  ALA A   6      36.273  33.817  34.887  0.00  0.00    +0.141 C 
BRANCH  98  99
ATOM     99  C   ALA A   6      36.889  35.098  35.442  0.00  0.00    +0.227 C 
ATOM    100  O   ALA A   6      37.143  36.019  34.682  0.00  0.00    -0.286 OA
ENDBRANCH  98  99
BRANCH  98 101
ATOM    101  CB  ALA A   6      37.335  32.705  34.801  0.00  0.00    +0.054 C 
BRANCH 101 102
ATOM    102  CG  ALA A   6      38.556  32.831  33.906  0.00  0.00    -0.020 A 
ATOM    103  CD2 ALA A   6      39.813  33.038  34.512  0.00  0.00    -0.001 A 
ATOM    104  CE2 ALA A   6      40.956  33.115  33.720  0.00  0.00    +0.036 A 
ATOM    105  CZ  ALA A   6      40.836  33.005  32.328  0.00  0.00    +0.134 A 
ATOM    106  CE1 ALA A   6      39.622  32.801  31.660  0.00  0.00    +0.036 A 
ATOM    107  CD1 ALA A   6      38.488  32.673  32.511  0.00  0.00    -0.001 A 
BRANCH 105 108
ATOM    108  OH  ALA A   6      41.972  33.141  31.596  0.00  0.00    -0.506 OA
ATOM    109  HH  ALA A   6      42.741  33.278  32.204  0.00  0.00    +0.292 HD
ENDBRANCH 105 108
ENDBRANCH 101 102
ENDBRANCH  98 101
ENDBRANCH  96  98
ENDBRANCH  93  94
BRANCH  93 110
ATOM    110  CB  CYS A   5      32.970  34.293  31.578  0.00  0.00    +0.055 C 
BRANCH 110 111
ATOM    111  CG  CYS A   5      32.951  35.780  31.881  0.00  0.00    -0.020 A 
ATOM    112  CD2 CYS A   5      33.319  36.314  33.109  0.00  0.00    -0.001 A 
ATOM    113  CE2 CYS A   5      33.252  37.698  33.340  0.00  0.00    +0.036 A 
ATOM    114  CZ  CYS A   5      32.890  38.551  32.322  0.00  0.00    +0.134 A 
ATOM    115  CE1 CYS A   5      32.587  38.008  31.085  0.00  0.00    +0.036 A 
ATOM    116  CD1 CYS A   5      32.583  36.648  30.875  0.00  0.00    -0.001 A 
BRANCH 114 117
ATOM    117  OH  CYS A   5      32.823  39.914  32.441  0.00  0.00    -0.506 OA
ATOM    118  HH  CYS A   5      32.541  40.306  31.577  0.00  0.00    +0.292 HD
ENDBRANCH 114 117
ENDBRANCH 110 111
ENDBRANCH  93 110
ENDBRANCH  90  93
ENDBRANCH  88  89
BRANCH  88 119
ATOM    119  CB  TRP A   4      35.857  29.391  30.619  0.00  0.00    +0.137 C 
ATOM    120  CG2 TRP A   4      35.562  29.357  32.115  0.00  0.00    +0.034 C 
BRANCH 119 121
ATOM    121  OG1 TRP A   4      35.630  28.069  30.147  0.00  0.00    -0.382 OA
ATOM    122  HG1 TRP A   4      36.164  27.432  30.685  0.00  0.00    +0.210 HD
ENDBRANCH 119 121
ENDBRANCH  88 119
ENDBRANCH  85  88
ENDBRANCH  83  84
BRANCH  83 124
ATOM    123  C   ALA A   2      34.972  27.924  24.478  0.00  0.00    +0.241 C 
ATOM    124  N   GLY A   3      34.304  28.723  25.311  0.00  0.00    -0.296 N 
ATOM    125  H   GLY A   3      33.287  28.555  25.449  0.00  0.00    +0.150 HD
ATOM    126  O   ALA A   2      36.173  28.123  24.244  0.00  0.00    -0.273 OA
BRANCH 123 127
ATOM    127  CA  ALA A   2      34.159  26.850  23.816  0.00  0.00    +0.149 C 
BRANCH 127 130
ATOM    128  C   ARG A   1      32.018  27.828  23.297  0.00  0.00    +0.239 C 
ATOM    129  O   ARG A   1      31.671  27.826  24.455  0.00  0.00    -0.274 OA
ATOM    130  N   ALA A   2      33.218  27.381  22.843  0.00  0.00    -0.297 N 
ATOM    131  H   ALA A   2      33.456  27.417  21.831  0.00  0.00    +0.150 HD
BRANCH 128 132
ATOM    132  CA  ARG A   1      31.015  28.325  22.281  0.00  0.00    +0.149 C 
BRANCH 132 133
ATOM    133  N   ARG A   1      29.771  27.559  22.428  0.00  0.00    -0.238 NA
ATOM    134  H   ARG A   1      29.530  27.118  23.338  0.00  0.00    +0.142 HD
ENDBRANCH 132 133
BRANCH 132 135
ATOM    135  CB  ARG A   1      30.672  29.825  22.449  0.00  0.00    +0.053 C 
BRANCH 135 136
ATOM    136  CG  ARG A   1      31.623  30.877  21.969  0.00  0.00    -0.020 A 
ATOM    137  CD2 ARG A   1      31.493  32.207  22.403  0.00  0.00    -0.001 A 
ATOM    138  CE2 ARG A   1      32.365  33.178  21.976  0.00  0.00    +0.036 A 
ATOM    139  CZ  ARG A   1      33.386  32.870  21.097  0.00  0.00    +0.134 A 
ATOM    140  CE1 ARG A   1      33.574  31.580  20.639  0.00  0.00    +0.036 A 
ATOM    141  CD1 ARG A   1      32.664  30.616  21.079  0.00  0.00    -0.001 A 
BRANCH 139 142
ATOM    142  OH  ARG A   1      34.226  33.890  20.663  0.00  0.00    -0.506 OA
ATOM    143  HH  ARG A   1      34.902  33.518  20.043  0.00  0.00    +0.292 HD
ENDBRANCH 139 142
ENDBRANCH 135 136
ENDBRANCH 132 135
ENDBRANCH 128 132
ENDBRANCH 127 130
BRANCH 127 144
ATOM    144  CB  ALA A   2      35.014  25.820  23.092  0.00  0.00    +0.029 C 
BRANCH 144 145
ATOM    145  CG  ALA A   2      34.235  24.489  22.853  0.00  0.00    +0.002 C 
ATOM    146  CD2 ALA A   2      34.097  23.685  24.133  0.00  0.00    +0.000 C 
ATOM    147  CD1 ALA A   2      35.051  23.729  21.817  0.00  0.00    +0.000 C 
ENDBRANCH 144 145
ENDBRANCH 127 144
ENDBRANCH 123 127
ENDBRANCH  83 124
ENDBRANCH  82  83
ENDBRANCH  81  82
ENDBRANCH  80  81
ENDBRANCH  79  80
ENDBRANCH   1  79
TORSDOF 57
REMARK  Name = ../refined-set-2016/1b7h/1b7h_pocket.pdb
REMARK  269 active torsions:
REMARK  status: ('A' for Active; 'I' for Inactive)
REMARK    1  A    between atoms: _1  and  _3
REMARK    2  A    between atoms: _3  and  _4
REMARK    3  A    between atoms: _6  and  _8
REMARK    4  A    between atoms: _8  and  _9
REMARK    5  A    between atoms: _8  and  _11
REMARK    6  A    between atoms: _11  and  _12
REMARK    7  A    between atoms: _14  and  _16
REMARK    8  A    between atoms: _16  and  _17
REMARK    9  A    between atoms: _16  and  _19
REMARK   10  A    between atoms: _19  and  _20
REMARK   11  A    between atoms: _20  and  _21
REMARK   12  A    between atoms: _26  and  _28
REMARK   13  A    between atoms: _28  and  _29
REMARK   14  A    between atoms: _28  and  _31
REMARK   15  A    between atoms: _31  and  _32
REMARK   16  A    between atoms: _35  and  _37
REMARK   17  A    between atoms: _37  and  _38
REMARK   18  A    between atoms: _37  and  _40
REMARK   19  A    between atoms: _40  and  _41
REMARK   20  A    between atoms: _41  and  _42
REMARK   21  A    between atoms: _45  and  _47
REMARK   22  A    between atoms: _47  and  _48
REMARK   23  A    between atoms: _50  and  _52
REMARK   24  A    between atoms: _52  and  _53
REMARK   25  A    between atoms: _52  and  _55
REMARK   26  A    between atoms: _59  and  _60
REMARK   27  A    between atoms: _65  and  _67
REMARK   28  A    between atoms: _67  and  _68
REMARK   29  A    between atoms: _67  and  _70
REMARK   30  A    between atoms: _70  and  _71
REMARK   31  A    between atoms: _71  and  _72
REMARK   32  A    between atoms: _75  and  _77
REMARK   33  A    between atoms: _77  and  _78
REMARK   34  A    between atoms: _77  and  _80
REMARK   35  A    between atoms: _80  and  _81
REMARK   36  A    between atoms: _83  and  _85
REMARK   37  A    between atoms: _85  and  _86
REMARK   38  A    between atoms: _85  and  _88
REMARK   39  A    between atoms: _88  and  _89
REMARK   40  A    between atoms: _94  and  _96
REMARK   41  A    between atoms: _96  and  _97
REMARK   42  A    between atoms: _96  and  _99
REMARK   43  A    between atoms: _99  and  _100
REMARK   44  A    between atoms: _100  and  _101
REMARK   45  A    between atoms: _101  and  _102
REMARK   46  A    between atoms: _112  and  _113
REMARK   47  A    between atoms: _118  and  _120
REMARK   48  A    between atoms: _120  and  _121
REMARK   49  A    between atoms: _120  and  _123
REMARK   50  A    between atoms: _123  and  _124
REMARK   51  A    between atoms: _129  and  _130
REMARK   52  A    between atoms: _132  and  _134
REMARK   53  A    between atoms: _134  and  _135
REMARK   54  A    between atoms: _134  and  _137
REMARK   55  A    between atoms: _137  and  _138
REMARK   56  A    between atoms: _143  and  _144
REMARK   57  A    between atoms: _146  and  _148
REMARK   58  A    between atoms: _148  and  _149
REMARK   59  A    between atoms: _148  and  _151
REMARK   60  A    between atoms: _154  and  _156
REMARK   61  A    between atoms: _156  and  _157
REMARK   62  A    between atoms: _156  and  _159
REMARK   63  A    between atoms: _159  and  _160
REMARK   64  A    between atoms: _166  and  _167
REMARK   65  A    between atoms: _172  and  _174
REMARK   66  A    between atoms: _174  and  _175
REMARK   67  A    between atoms: _174  and  _177
REMARK   68  A    between atoms: _177  and  _178
REMARK   69  A    between atoms: _180  and  _182
REMARK   70  A    between atoms: _182  and  _183
REMARK   71  A    between atoms: _182  and  _185
REMARK   72  A    between atoms: _185  and  _186
REMARK   73  A    between atoms: _191  and  _192
REMARK   74  A    between atoms: _194  and  _196
REMARK   75  A    between atoms: _196  and  _197
REMARK   76  A    between atoms: _196  and  _199
REMARK   77  A    between atoms: _199  and  _200
REMARK   78  A    between atoms: _205  and  _207
REMARK   79  A    between atoms: _207  and  _208
REMARK   80  A    between atoms: _207  and  _210
REMARK   81  A    between atoms: _210  and  _211
REMARK   82  A    between atoms: _216  and  _218
REMARK   83  A    between atoms: _218  and  _219
REMARK   84  A    between atoms: _218  and  _221
REMARK   85  A    between atoms: _221  and  _222
REMARK   86  A    between atoms: _222  and  _223
REMARK   87  A    between atoms: _225  and  _227
REMARK   88  A    between atoms: _227  and  _228
REMARK   89  A    between atoms: _227  and  _230
REMARK   90  A    between atoms: _230  and  _231
REMARK   91  A    between atoms: _236  and  _237
REMARK   92  A    between atoms: _239  and  _241
REMARK   93  A    between atoms: _241  and  _242
REMARK   94  A    between atoms: _241  and  _244
REMARK   95  A    between atoms: _244  and  _245
REMARK   96  A    between atoms: _248  and  _250
REMARK   97  A    between atoms: _250  and  _251
REMARK   98  A    between atoms: _250  and  _253
REMARK   99  A    between atoms: _253  and  _254
REMARK  100  A    between atoms: _254  and  _484
REMARK  101  A    between atoms: _255  and  _257
REMARK  102  A    between atoms: _257  and  _258
REMARK  103  A    between atoms: _257  and  _260
REMARK  104  A    between atoms: _260  and  _261
REMARK  105  A    between atoms: _264  and  _266
REMARK  106  A    between atoms: _266  and  _267
REMARK  107  A    between atoms: _266  and  _269
REMARK  108  A    between atoms: _269  and  _270
REMARK  109  A    between atoms: _275  and  _276
REMARK  110  A    between atoms: _278  and  _280
REMARK  111  A    between atoms: _280  and  _281
REMARK  112  A    between atoms: _280  and  _283
REMARK  113  A    between atoms: _283  and  _284
REMARK  114  A    between atoms: _289  and  _290
REMARK  115  A    between atoms: _292  and  _294
REMARK  116  A    between atoms: _294  and  _295
REMARK  117  A    between atoms: _294  and  _297
REMARK  118  A    between atoms: _297  and  _298
REMARK  119  A    between atoms: _298  and  _299
REMARK  120  A    between atoms: _302  and  _304
REMARK  121  A    between atoms: _304  and  _305
REMARK  122  A    between atoms: _304  and  _307
REMARK  123  A    between atoms: _307  and  _308
REMARK  124  A    between atoms: _308  and  _309
REMARK  125  A    between atoms: _309  and  _310
REMARK  126  A    between atoms: _310  and  _311
REMARK  127  A    between atoms: _315  and  _317
REMARK  128  A    between atoms: _317  and  _318
REMARK  129  A    between atoms: _317  and  _320
REMARK  130  A    between atoms: _320  and  _321
REMARK  131  A    between atoms: _326  and  _327
REMARK  132  A    between atoms: _329  and  _331
REMARK  133  A    between atoms: _331  and  _332
REMARK  134  A    between atoms: _331  and  _334
REMARK  135  A    between atoms: _334  and  _335
REMARK  136  A    between atoms: _340  and  _342
REMARK  137  A    between atoms: _342  and  _343
REMARK  138  A    between atoms: _342  and  _345
REMARK  139  A    between atoms: _345  and  _346
REMARK  140  A    between atoms: _349  and  _351
REMARK  141  A    between atoms: _351  and  _352
REMARK  142  A    between atoms: _351  and  _354
REMARK  143  A    between atoms: _354  and  _355
REMARK  144  A    between atoms: _360  and  _362
REMARK  145  A    between atoms: _362  and  _363
REMARK  146  A    between atoms: _362  and  _365
REMARK  147  A    between atoms: _365  and  _366
REMARK  148  A    between atoms: _376  and  _378
REMARK  149  A    between atoms: _378  and  _379
REMARK  150  A    between atoms: _378  and  _381
REMARK  151  A    between atoms: _381  and  _382
REMARK  152  A    between atoms: _388  and  _390
REMARK  153  A    between atoms: _390  and  _391
REMARK  154  A    between atoms: _390  and  _393
REMARK  155  A    between atoms: _393  and  _394
REMARK  156  A    between atoms: _397  and  _399
REMARK  157  A    between atoms: _399  and  _400
REMARK  158  A    between atoms: _399  and  _402
REMARK  159  A    between atoms: _402  and  _403
REMARK  160  A    between atoms: _406  and  _408
REMARK  161  A    between atoms: _408  and  _409
REMARK  162  A    between atoms: _408  and  _411
REMARK  163  A    between atoms: _411  and  _412
REMARK  164  A    between atoms: _412  and  _413
REMARK  165  A    between atoms: _413  and  _414
REMARK  166  A    between atoms: _423  and  _425
REMARK  167  A    between atoms: _425  and  _426
REMARK  168  A    between atoms: _425  and  _428
REMARK  169  A    between atoms: _428  and  _429
REMARK  170  A    between atoms: _434  and  _436
REMARK  171  A    between atoms: _436  and  _437
REMARK  172  A    between atoms: _436  and  _439
REMARK  173  A    between atoms: _439  and  _440
REMARK  174  A    between atoms: _440  and  _441
REMARK  175  A    between atoms: _441  and  _442
REMARK  176  A    between atoms: _451  and  _453
REMARK  177  A    between atoms: _453  and  _454
REMARK  178  A    between atoms: _457  and  _459
REMARK  179  A    between atoms: _459  and  _460
REMARK  180  A    between atoms: _462  and  _464
REMARK  181  A    between atoms: _464  and  _465
REMARK  182  A    between atoms: _464  and  _467
REMARK  183  A    between atoms: _467  and  _468
REMARK  184  A    between atoms: _478  and  _480
REMARK  185  A    between atoms: _480  and  _481
REMARK  186  A    between atoms: _480  and  _483
REMARK  187  A    between atoms: _483  and  _484
REMARK  188  A    between atoms: _485  and  _487
REMARK  189  A    between atoms: _487  and  _488
REMARK  190  A    between atoms: _491  and  _493
REMARK  191  A    between atoms: _493  and  _494
REMARK  192  A    between atoms: _493  and  _496
REMARK  193  A    between atoms: _496  and  _497
REMARK  194  A    between atoms: _500  and  _502
REMARK  195  A    between atoms: _502  and  _503
REMARK  196  A    between atoms: _502  and  _505
REMARK  197  A    between atoms: _505  and  _506
REMARK  198  A    between atoms: _511  and  _512
REMARK  199  A    between atoms: _514  and  _516
REMARK  200  A    between atoms: _516  and  _517
REMARK  201  A    between atoms: _516  and  _519
REMARK  202  A    between atoms: _519  and  _520
REMARK  203  A    between atoms: _522  and  _524
REMARK  204  A    between atoms: _524  and  _525
REMARK  205  A    between atoms: _524  and  _527
REMARK  206  A    between atoms: _527  and  _528
REMARK  207  A    between atoms: _534  and  _536
REMARK  208  A    between atoms: _536  and  _537
REMARK  209  A    between atoms: _536  and  _539
REMARK  210  A    between atoms: _539  and  _540
REMARK  211  A    between atoms: _543  and  _545
REMARK  212  A    between atoms: _545  and  _546
REMARK  213  A    between atoms: _545  and  _548
REMARK  214  A    between atoms: _548  and  _549
REMARK  215  A    between atoms: _551  and  _553
REMARK  216  A    between atoms: _553  and  _554
REMARK  217  A    between atoms: _553  and  _556
REMARK  218  A    between atoms: _556  and  _557
REMARK  219  A    between atoms: _562  and  _564
REMARK  220  A    between atoms: _564  and  _565
REMARK  221  A    between atoms: _564  and  _567
REMARK  222  A    between atoms: _567  and  _568
REMARK  223  A    between atoms: _573  and  _575
REMARK  224  A    between atoms: _575  and  _576
REMARK  225  A    between atoms: _575  and  _578
REMARK  226  A    between atoms: _578  and  _579
REMARK  227  A    between atoms: _582  and  _584
REMARK  228  A    between atoms: _584  and  _585
REMARK  229  A    between atoms: _588  and  _590
REMARK  230  A    between atoms: _590  and  _591
REMARK  231  A    between atoms: _590  and  _593
REMARK  232  A    between atoms: _593  and  _594
REMARK  233  A    between atoms: _599  and  _600
REMARK  234  A    between atoms: _602  and  _604
REMARK  235  A    between atoms: _604  and  _605
REMARK  236  A    between atoms: _604  and  _607
REMARK  237  A    between atoms: _607  and  _608
REMARK  238  A    between atoms: _613  and  _614
REMARK  239  A    between atoms: _616  and  _618
REMARK  240  A    between atoms: _618  and  _619
REMARK  241  A    between atoms: _618  and  _621
REMARK  242  A    between atoms: _624  and  _626
REMARK  243  A    between atoms: _626  and  _627
REMARK  244  A    between atoms: _626  and  _629
REMARK  245  A    between atoms: _629  and  _630
REMARK  246  A    between atoms: _635  and  _637
REMARK  247  A    between atoms: _637  and  _638
REMARK  248  A    between atoms: _641  and  _643
REMARK  249  A    between atoms: _643  and  _644
REMARK  250  A    between atoms: _643  and  _646
REMARK  251  A    between atoms: _646  and  _647
REMARK  252  A    between atoms: _647  and  _648
REMARK  253  A    between atoms: _648  and  _649
REMARK  254  A    between atoms: _658  and  _660
REMARK  255  A    between atoms: _660  and  _661
REMARK  256  A    between atoms: _660  and  _663
REMARK  257  A    between atoms: _663  and  _664
REMARK  258  A    between atoms: _667  and  _669
REMARK  259  A    between atoms: _669  and  _670
REMARK  260  A    between atoms: _669  and  _672
REMARK  261  A    between atoms: _672  and  _673
REMARK  262  A    between atoms: _676  and  _678
REMARK  263  A    between atoms: _678  and  _679
REMARK  264  A    between atoms: _678  and  _681
REMARK  265  A    between atoms: _681  and  _682
REMARK  266  A    between atoms: _687  and  _689
REMARK  267  A    between atoms: _689  and  _690
REMARK  268  A    between atoms: _689  and  _692
REMARK  269  A    between atoms: _692  and  _693
REMARK                            x       y       z     vdW  Elec       q    Type
REMARK                         _______ _______ _______ _____ _____    ______ ____
ROOT
ATOM      1  CA  GLU A   1      41.739  35.913  36.861  0.00  0.00    +0.134 C 
ENDROOT
BRANCH   1   2
ATOM      2  N   GLU A   1      40.316  36.320  36.775  0.00  0.00    -0.239 NA
ATOM      3  H   GLU A   1      40.040  37.116  36.166  0.00  0.00    +0.142 HD
ENDBRANCH   1   2
BRANCH   1   4
ATOM      4  C   GLU A   1      42.417  36.489  38.113  0.00  0.00    +0.224 C 
ATOM      5  O   GLU A   1      42.436  37.689  38.273  0.00  0.00    -0.287 OA
ENDBRANCH   1   4
BRANCH   1   6
ATOM      6  CB  GLU A   1      42.407  36.448  35.634  0.00  0.00    +0.037 C 
BRANCH   6   7
ATOM      7  CG  GLU A   1      43.863  36.034  35.453  0.00  0.00    +0.116 C 
BRANCH   7   8
ATOM      8  CD  GLU A   1      44.396  36.544  34.146  0.00  0.00    +0.365 C 
ATOM      9  OE2 GLU A   1      44.628  37.794  34.012  0.00  0.00    -0.246 OA
ATOM     10  OE1 GLU A   1      44.559  35.757  33.188  0.00  0.00    -0.246 OA
ENDBRANCH   7   8
ENDBRANCH   6   7
ENDBRANCH   1   6
TORSDOF 5
REMARK  Name = ../refined-set-2016/1b7h/1b7h_pocket.pdb
REMARK  269 active torsions:
REMARK  status: ('A' for Active; 'I' for Inactive)
REMARK    1  A    between atoms: _1  and  _3
REMARK    2  A    between atoms: _3  and  _4
REMARK    3  A    between atoms: _6  and  _8
REMARK    4  A    between atoms: _8  and  _9
REMARK    5  A    between atoms: _8  and  _11
REMARK    6  A    between atoms: _11  and  _12
REMARK    7  A    between atoms: _14  and  _16
REMARK    8  A    between atoms: _16  and  _17
REMARK    9  A    between atoms: _16  and  _19
REMARK   10  A    between atoms: _19  and  _20
REMARK   11  A    between atoms: _20  and  _21
REMARK   12  A    between atoms: _26  and  _28
REMARK   13  A    between atoms: _28  and  _29
REMARK   14  A    between atoms: _28  and  _31
REMARK   15  A    between atoms: _31  and  _32
REMARK   16  A    between atoms: _35  and  _37
REMARK   17  A    between atoms: _37  and  _38
REMARK   18  A    between atoms: _37  and  _40
REMARK   19  A    between atoms: _40  and  _41
REMARK   20  A    between atoms: _41  and  _42
REMARK   21  A    between atoms: _45  and  _47
REMARK   22  A    between atoms: _47  and  _48
REMARK   23  A    between atoms: _50  and  _52
REMARK   24  A    between atoms: _52  and  _53
REMARK   25  A    between atoms: _52  and  _55
REMARK   26  A    between atoms: _59  and  _60
REMARK   27  A    between atoms: _65  and  _67
REMARK   28  A    between atoms: _67  and  _68
REMARK   29  A    between atoms: _67  and  _70
REMARK   30  A    between atoms: _70  and  _71
REMARK   31  A    between atoms: _71  and  _72
REMARK   32  A    between atoms: _75  and  _77
REMARK   33  A    between atoms: _77  and  _78
REMARK   34  A    between atoms: _77  and  _80
REMARK   35  A    between atoms: _80  and  _81
REMARK   36  A    between atoms: _83  and  _85
REMARK   37  A    between atoms: _85  and  _86
REMARK   38  A    between atoms: _85  and  _88
REMARK   39  A    between atoms: _88  and  _89
REMARK   40  A    between atoms: _94  and  _96
REMARK   41  A    between atoms: _96  and  _97
REMARK   42  A    between atoms: _96  and  _99
REMARK   43  A    between atoms: _99  and  _100
REMARK   44  A    between atoms: _100  and  _101
REMARK   45  A    between atoms: _101  and  _102
REMARK   46  A    between atoms: _112  and  _113
REMARK   47  A    between atoms: _118  and  _120
REMARK   48  A    between atoms: _120  and  _121
REMARK   49  A    between atoms: _120  and  _123
REMARK   50  A    between atoms: _123  and  _124
REMARK   51  A    between atoms: _129  and  _130
REMARK   52  A    between atoms: _132  and  _134
REMARK   53  A    between atoms: _134  and  _135
REMARK   54  A    between atoms: _134  and  _137
REMARK   55  A    between atoms: _137  and  _138
REMARK   56  A    between atoms: _143  and  _144
REMARK   57  A    between atoms: _146  and  _148
REMARK   58  A    between atoms: _148  and  _149
REMARK   59  A    between atoms: _148  and  _151
REMARK   60  A    between atoms: _154  and  _156
REMARK   61  A    between atoms: _156  and  _157
REMARK   62  A    between atoms: _156  and  _159
REMARK   63  A    between atoms: _159  and  _160
REMARK   64  A    between atoms: _166  and  _167
REMARK   65  A    between atoms: _172  and  _174
REMARK   66  A    between atoms: _174  and  _175
REMARK   67  A    between atoms: _174  and  _177
REMARK   68  A    between atoms: _177  and  _178
REMARK   69  A    between atoms: _180  and  _182
REMARK   70  A    between atoms: _182  and  _183
REMARK   71  A    between atoms: _182  and  _185
REMARK   72  A    between atoms: _185  and  _186
REMARK   73  A    between atoms: _191  and  _192
REMARK   74  A    between atoms: _194  and  _196
REMARK   75  A    between atoms: _196  and  _197
REMARK   76  A    between atoms: _196  and  _199
REMARK   77  A    between atoms: _199  and  _200
REMARK   78  A    between atoms: _205  and  _207
REMARK   79  A    between atoms: _207  and  _208
REMARK   80  A    between atoms: _207  and  _210
REMARK   81  A    between atoms: _210  and  _211
REMARK   82  A    between atoms: _216  and  _218
REMARK   83  A    between atoms: _218  and  _219
REMARK   84  A    between atoms: _218  and  _221
REMARK   85  A    between atoms: _221  and  _222
REMARK   86  A    between atoms: _222  and  _223
REMARK   87  A    between atoms: _225  and  _227
REMARK   88  A    between atoms: _227  and  _228
REMARK   89  A    between atoms: _227  and  _230
REMARK   90  A    between atoms: _230  and  _231
REMARK   91  A    between atoms: _236  and  _237
REMARK   92  A    between atoms: _239  and  _241
REMARK   93  A    between atoms: _241  and  _242
REMARK   94  A    between atoms: _241  and  _244
REMARK   95  A    between atoms: _244  and  _245
REMARK   96  A    between atoms: _248  and  _250
REMARK   97  A    between atoms: _250  and  _251
REMARK   98  A    between atoms: _250  and  _253
REMARK   99  A    between atoms: _253  and  _254
REMARK  100  A    between atoms: _254  and  _484
REMARK  101  A    between atoms: _255  and  _257
REMARK  102  A    between atoms: _257  and  _258
REMARK  103  A    between atoms: _257  and  _260
REMARK  104  A    between atoms: _260  and  _261
REMARK  105  A    between atoms: _264  and  _266
REMARK  106  A    between atoms: _266  and  _267
REMARK  107  A    between atoms: _266  and  _269
REMARK  108  A    between atoms: _269  and  _270
REMARK  109  A    between atoms: _275  and  _276
REMARK  110  A    between atoms: _278  and  _280
REMARK  111  A    between atoms: _280  and  _281
REMARK  112  A    between atoms: _280  and  _283
REMARK  113  A    between atoms: _283  and  _284
REMARK  114  A    between atoms: _289  and  _290
REMARK  115  A    between atoms: _292  and  _294
REMARK  116  A    between atoms: _294  and  _295
REMARK  117  A    between atoms: _294  and  _297
REMARK  118  A    between atoms: _297  and  _298
REMARK  119  A    between atoms: _298  and  _299
REMARK  120  A    between atoms: _302  and  _304
REMARK  121  A    between atoms: _304  and  _305
REMARK  122  A    between atoms: _304  and  _307
REMARK  123  A    between atoms: _307  and  _308
REMARK  124  A    between atoms: _308  and  _309
REMARK  125  A    between atoms: _309  and  _310
REMARK  126  A    between atoms: _310  and  _311
REMARK  127  A    between atoms: _315  and  _317
REMARK  128  A    between atoms: _317  and  _318
REMARK  129  A    between atoms: _317  and  _320
REMARK  130  A    between atoms: _320  and  _321
REMARK  131  A    between atoms: _326  and  _327
REMARK  132  A    between atoms: _329  and  _331
REMARK  133  A    between atoms: _331  and  _332
REMARK  134  A    between atoms: _331  and  _334
REMARK  135  A    between atoms: _334  and  _335
REMARK  136  A    between atoms: _340  and  _342
REMARK  137  A    between atoms: _342  and  _343
REMARK  138  A    between atoms: _342  and  _345
REMARK  139  A    between atoms: _345  and  _346
REMARK  140  A    between atoms: _349  and  _351
REMARK  141  A    between atoms: _351  and  _352
REMARK  142  A    between atoms: _351  and  _354
REMARK  143  A    between atoms: _354  and  _355
REMARK  144  A    between atoms: _360  and  _362
REMARK  145  A    between atoms: _362  and  _363
REMARK  146  A    between atoms: _362  and  _365
REMARK  147  A    between atoms: _365  and  _366
REMARK  148  A    between atoms: _376  and  _378
REMARK  149  A    between atoms: _378  and  _379
REMARK  150  A    between atoms: _378  and  _381
REMARK  151  A    between atoms: _381  and  _382
REMARK  152  A    between atoms: _388  and  _390
REMARK  153  A    between atoms: _390  and  _391
REMARK  154  A    between atoms: _390  and  _393
REMARK  155  A    between atoms: _393  and  _394
REMARK  156  A    between atoms: _397  and  _399
REMARK  157  A    between atoms: _399  and  _400
REMARK  158  A    between atoms: _399  and  _402
REMARK  159  A    between atoms: _402  and  _403
REMARK  160  A    between atoms: _406  and  _408
REMARK  161  A    between atoms: _408  and  _409
REMARK  162  A    between atoms: _408  and  _411
REMARK  163  A    between atoms: _411  and  _412
REMARK  164  A    between atoms: _412  and  _413
REMARK  165  A    between atoms: _413  and  _414
REMARK  166  A    between atoms: _423  and  _425
REMARK  167  A    between atoms: _425  and  _426
REMARK  168  A    between atoms: _425  and  _428
REMARK  169  A    between atoms: _428  and  _429
REMARK  170  A    between atoms: _434  and  _436
REMARK  171  A    between atoms: _436  and  _437
REMARK  172  A    between atoms: _436  and  _439
REMARK  173  A    between atoms: _439  and  _440
REMARK  174  A    between atoms: _440  and  _441
REMARK  175  A    between atoms: _441  and  _442
REMARK  176  A    between atoms: _451  and  _453
REMARK  177  A    between atoms: _453  and  _454
REMARK  178  A    between atoms: _457  and  _459
REMARK  179  A    between atoms: _459  and  _460
REMARK  180  A    between atoms: _462  and  _464
REMARK  181  A    between atoms: _464  and  _465
REMARK  182  A    between atoms: _464  and  _467
REMARK  183  A    between atoms: _467  and  _468
REMARK  184  A    between atoms: _478  and  _480
REMARK  185  A    between atoms: _480  and  _481
REMARK  186  A    between atoms: _480  and  _483
REMARK  187  A    between atoms: _483  and  _484
REMARK  188  A    between atoms: _485  and  _487
REMARK  189  A    between atoms: _487  and  _488
REMARK  190  A    between atoms: _491  and  _493
REMARK  191  A    between atoms: _493  and  _494
REMARK  192  A    between atoms: _493  and  _496
REMARK  193  A    between atoms: _496  and  _497
REMARK  194  A    between atoms: _500  and  _502
REMARK  195  A    between atoms: _502  and  _503
REMARK  196  A    between atoms: _502  and  _505
REMARK  197  A    between atoms: _505  and  _506
REMARK  198  A    between atoms: _511  and  _512
REMARK  199  A    between atoms: _514  and  _516
REMARK  200  A    between atoms: _516  and  _517
REMARK  201  A    between atoms: _516  and  _519
REMARK  202  A    between atoms: _519  and  _520
REMARK  203  A    between atoms: _522  and  _524
REMARK  204  A    between atoms: _524  and  _525
REMARK  205  A    between atoms: _524  and  _527
REMARK  206  A    between atoms: _527  and  _528
REMARK  207  A    between atoms: _534  and  _536
REMARK  208  A    between atoms: _536  and  _537
REMARK  209  A    between atoms: _536  and  _539
REMARK  210  A    between atoms: _539  and  _540
REMARK  211  A    between atoms: _543  and  _545
REMARK  212  A    between atoms: _545  and  _546
REMARK  213  A    between atoms: _545  and  _548
REMARK  214  A    between atoms: _548  and  _549
REMARK  215  A    between atoms: _551  and  _553
REMARK  216  A    between atoms: _553  and  _554
REMARK  217  A    between atoms: _553  and  _556
REMARK  218  A    between atoms: _556  and  _557
REMARK  219  A    between atoms: _562  and  _564
REMARK  220  A    between atoms: _564  and  _565
REMARK  221  A    between atoms: _564  and  _567
REMARK  222  A    between atoms: _567  and  _568
REMARK  223  A    between atoms: _573  and  _575
REMARK  224  A    between atoms: _575  and  _576
REMARK  225  A    between atoms: _575  and  _578
REMARK  226  A    between atoms: _578  and  _579
REMARK  227  A    between atoms: _582  and  _584
REMARK  228  A    between atoms: _584  and  _585
REMARK  229  A    between atoms: _588  and  _590
REMARK  230  A    between atoms: _590  and  _591
REMARK  231  A    between atoms: _590  and  _593
REMARK  232  A    between atoms: _593  and  _594
REMARK  233  A    between atoms: _599  and  _600
REMARK  234  A    between atoms: _602  and  _604
REMARK  235  A    between atoms: _604  and  _605
REMARK  236  A    between atoms: _604  and  _607
REMARK  237  A    between atoms: _607  and  _608
REMARK  238  A    between atoms: _613  and  _614
REMARK  239  A    between atoms: _616  and  _618
REMARK  240  A    between atoms: _618  and  _619
REMARK  241  A    between atoms: _618  and  _621
REMARK  242  A    between atoms: _624  and  _626
REMARK  243  A    between atoms: _626  and  _627
REMARK  244  A    between atoms: _626  and  _629
REMARK  245  A    between atoms: _629  and  _630
REMARK  246  A    between atoms: _635  and  _637
REMARK  247  A    between atoms: _637  and  _638
REMARK  248  A    between atoms: _641  and  _643
REMARK  249  A    between atoms: _643  and  _644
REMARK  250  A    between atoms: _643  and  _646
REMARK  251  A    between atoms: _646  and  _647
REMARK  252  A    between atoms: _647  and  _648
REMARK  253  A    between atoms: _648  and  _649
REMARK  254  A    between atoms: _658  and  _660
REMARK  255  A    between atoms: _660  and  _661
REMARK  256  A    between atoms: _660  and  _663
REMARK  257  A    between atoms: _663  and  _664
REMARK  258  A    between atoms: _667  and  _669
REMARK  259  A    between atoms: _669  and  _670
REMARK  260  A    between atoms: _669  and  _672
REMARK  261  A    between atoms: _672  and  _673
REMARK  262  A    between atoms: _676  and  _678
REMARK  263  A    between atoms: _678  and  _679
REMARK  264  A    between atoms: _678  and  _681
REMARK  265  A    between atoms: _681  and  _682
REMARK  266  A    between atoms: _687  and  _689
REMARK  267  A    between atoms: _689  and  _690
REMARK  268  A    between atoms: _689  and  _692
REMARK  269  A    between atoms: _692  and  _693
REMARK                            x       y       z     vdW  Elec       q    Type
REMARK                         _______ _______ _______ _____ _____    ______ ____
ROOT
ATOM      1  CG  LYS A   1      24.664  37.757  30.865  0.00  0.00    -0.000 C 
ENDROOT
BRANCH   1   2
ATOM      2  CB  LYS A   1      24.163  37.574  32.310  0.00  0.00    +0.025 C 
BRANCH   2   3
ATOM      3  CA  LYS A   1      22.840  38.293  32.575  0.00  0.00    +0.133 C 
BRANCH   3   4
ATOM      4  N   LYS A   1      22.656  38.390  34.017  0.00  0.00    -0.239 NA
ATOM      5  H   LYS A   1      22.897  37.570  34.610  0.00  0.00    +0.142 HD
ENDBRANCH   3   4
BRANCH   3   6
ATOM      6  C   LYS A   1      21.703  37.572  31.857  0.00  0.00    +0.224 C 
ATOM      7  O   LYS A   1      21.076  38.075  30.944  0.00  0.00    -0.287 OA
ENDBRANCH   3   6
ENDBRANCH   2   3
ENDBRANCH   1   2
BRANCH   1   8
ATOM      8  CD  LYS A   1      26.099  37.215  30.885  0.00  0.00    -0.024 C 
BRANCH   8   9
ATOM      9  CE  LYS A   1      26.863  37.615  29.621  0.00  0.00    -0.086 C 
BRANCH   9  10
ATOM     10  NZ  LYS A   1      26.560  36.662  28.538  0.00  0.00    +0.380 N 
ATOM     11  HZ1 LYS A   1      26.848  35.706  28.829  0.00  0.00    -0.089 HD
ATOM     12  HZ2 LYS A   1      25.538  36.674  28.343  0.00  0.00    -0.089 HD
ATOM     13  HZ3 LYS A   1      27.081  36.937  27.681  0.00  0.00    -0.089 HD
ENDBRANCH   9  10
ENDBRANCH   8   9
ENDBRANCH   1   8
TORSDOF 7
REMARK  Name = ../refined-set-2016/1b7h/1b7h_pocket.pdb
REMARK  269 active torsions:
REMARK  status: ('A' for Active; 'I' for Inactive)
REMARK    1  A    between atoms: _1  and  _3
REMARK    2  A    between atoms: _3  and  _4
REMARK    3  A    between atoms: _6  and  _8
REMARK    4  A    between atoms: _8  and  _9
REMARK    5  A    between atoms: _8  and  _11
REMARK    6  A    between atoms: _11  and  _12
REMARK    7  A    between atoms: _14  and  _16
REMARK    8  A    between atoms: _16  and  _17
REMARK    9  A    between atoms: _16  and  _19
REMARK   10  A    between atoms: _19  and  _20
REMARK   11  A    between atoms: _20  and  _21
REMARK   12  A    between atoms: _26  and  _28
REMARK   13  A    between atoms: _28  and  _29
REMARK   14  A    between atoms: _28  and  _31
REMARK   15  A    between atoms: _31  and  _32
REMARK   16  A    between atoms: _35  and  _37
REMARK   17  A    between atoms: _37  and  _38
REMARK   18  A    between atoms: _37  and  _40
REMARK   19  A    between atoms: _40  and  _41
REMARK   20  A    between atoms: _41  and  _42
REMARK   21  A    between atoms: _45  and  _47
REMARK   22  A    between atoms: _47  and  _48
REMARK   23  A    between atoms: _50  and  _52
REMARK   24  A    between atoms: _52  and  _53
REMARK   25  A    between atoms: _52  and  _55
REMARK   26  A    between atoms: _59  and  _60
REMARK   27  A    between atoms: _65  and  _67
REMARK   28  A    between atoms: _67  and  _68
REMARK   29  A    between atoms: _67  and  _70
REMARK   30  A    between atoms: _70  and  _71
REMARK   31  A    between atoms: _71  and  _72
REMARK   32  A    between atoms: _75  and  _77
REMARK   33  A    between atoms: _77  and  _78
REMARK   34  A    between atoms: _77  and  _80
REMARK   35  A    between atoms: _80  and  _81
REMARK   36  A    between atoms: _83  and  _85
REMARK   37  A    between atoms: _85  and  _86
REMARK   38  A    between atoms: _85  and  _88
REMARK   39  A    between atoms: _88  and  _89
REMARK   40  A    between atoms: _94  and  _96
REMARK   41  A    between atoms: _96  and  _97
REMARK   42  A    between atoms: _96  and  _99
REMARK   43  A    between atoms: _99  and  _100
REMARK   44  A    between atoms: _100  and  _101
REMARK   45  A    between atoms: _101  and  _102
REMARK   46  A    between atoms: _112  and  _113
REMARK   47  A    between atoms: _118  and  _120
REMARK   48  A    between atoms: _120  and  _121
REMARK   49  A    between atoms: _120  and  _123
REMARK   50  A    between atoms: _123  and  _124
REMARK   51  A    between atoms: _129  and  _130
REMARK   52  A    between atoms: _132  and  _134
REMARK   53  A    between atoms: _134  and  _135
REMARK   54  A    between atoms: _134  and  _137
REMARK   55  A    between atoms: _137  and  _138
REMARK   56  A    between atoms: _143  and  _144
REMARK   57  A    between atoms: _146  and  _148
REMARK   58  A    between atoms: _148  and  _149
REMARK   59  A    between atoms: _148  and  _151
REMARK   60  A    between atoms: _154  and  _156
REMARK   61  A    between atoms: _156  and  _157
REMARK   62  A    between atoms: _156  and  _159
REMARK   63  A    between atoms: _159  and  _160
REMARK   64  A    between atoms: _166  and  _167
REMARK   65  A    between atoms: _172  and  _174
REMARK   66  A    between atoms: _174  and  _175
REMARK   67  A    between atoms: _174  and  _177
REMARK   68  A    between atoms: _177  and  _178
REMARK   69  A    between atoms: _180  and  _182
REMARK   70  A    between atoms: _182  and  _183
REMARK   71  A    between atoms: _182  and  _185
REMARK   72  A    between atoms: _185  and  _186
REMARK   73  A    between atoms: _191  and  _192
REMARK   74  A    between atoms: _194  and  _196
REMARK   75  A    between atoms: _196  and  _197
REMARK   76  A    between atoms: _196  and  _199
REMARK   77  A    between atoms: _199  and  _200
REMARK   78  A    between atoms: _205  and  _207
REMARK   79  A    between atoms: _207  and  _208
REMARK   80  A    between atoms: _207  and  _210
REMARK   81  A    between atoms: _210  and  _211
REMARK   82  A    between atoms: _216  and  _218
REMARK   83  A    between atoms: _218  and  _219
REMARK   84  A    between atoms: _218  and  _221
REMARK   85  A    between atoms: _221  and  _222
REMARK   86  A    between atoms: _222  and  _223
REMARK   87  A    between atoms: _225  and  _227
REMARK   88  A    between atoms: _227  and  _228
REMARK   89  A    between atoms: _227  and  _230
REMARK   90  A    between atoms: _230  and  _231
REMARK   91  A    between atoms: _236  and  _237
REMARK   92  A    between atoms: _239  and  _241
REMARK   93  A    between atoms: _241  and  _242
REMARK   94  A    between atoms: _241  and  _244
REMARK   95  A    between atoms: _244  and  _245
REMARK   96  A    between atoms: _248  and  _250
REMARK   97  A    between atoms: _250  and  _251
REMARK   98  A    between atoms: _250  and  _253
REMARK   99  A    between atoms: _253  and  _254
REMARK  100  A    between atoms: _254  and  _484
REMARK  101  A    between atoms: _255  and  _257
REMARK  102  A    between atoms: _257  and  _258
REMARK  103  A    between atoms: _257  and  _260
REMARK  104  A    between atoms: _260  and  _261
REMARK  105  A    between atoms: _264  and  _266
REMARK  106  A    between atoms: _266  and  _267
REMARK  107  A    between atoms: _266  and  _269
REMARK  108  A    between atoms: _269  and  _270
REMARK  109  A    between atoms: _275  and  _276
REMARK  110  A    between atoms: _278  and  _280
REMARK  111  A    between atoms: _280  and  _281
REMARK  112  A    between atoms: _280  and  _283
REMARK  113  A    between atoms: _283  and  _284
REMARK  114  A    between atoms: _289  and  _290
REMARK  115  A    between atoms: _292  and  _294
REMARK  116  A    between atoms: _294  and  _295
REMARK  117  A    between atoms: _294  and  _297
REMARK  118  A    between atoms: _297  and  _298
REMARK  119  A    between atoms: _298  and  _299
REMARK  120  A    between atoms: _302  and  _304
REMARK  121  A    between atoms: _304  and  _305
REMARK  122  A    between atoms: _304  and  _307
REMARK  123  A    between atoms: _307  and  _308
REMARK  124  A    between atoms: _308  and  _309
REMARK  125  A    between atoms: _309  and  _310
REMARK  126  A    between atoms: _310  and  _311
REMARK  127  A    between atoms: _315  and  _317
REMARK  128  A    between atoms: _317  and  _318
REMARK  129  A    between atoms: _317  and  _320
REMARK  130  A    between atoms: _320  and  _321
REMARK  131  A    between atoms: _326  and  _327
REMARK  132  A    between atoms: _329  and  _331
REMARK  133  A    between atoms: _331  and  _332
REMARK  134  A    between atoms: _331  and  _334
REMARK  135  A    between atoms: _334  and  _335
REMARK  136  A    between atoms: _340  and  _342
REMARK  137  A    between atoms: _342  and  _343
REMARK  138  A    between atoms: _342  and  _345
REMARK  139  A    between atoms: _345  and  _346
REMARK  140  A    between atoms: _349  and  _351
REMARK  141  A    between atoms: _351  and  _352
REMARK  142  A    between atoms: _351  and  _354
REMARK  143  A    between atoms: _354  and  _355
REMARK  144  A    between atoms: _360  and  _362
REMARK  145  A    between atoms: _362  and  _363
REMARK  146  A    between atoms: _362  and  _365
REMARK  147  A    between atoms: _365  and  _366
REMARK  148  A    between atoms: _376  and  _378
REMARK  149  A    between atoms: _378  and  _379
REMARK  150  A    between atoms: _378  and  _381
REMARK  151  A    between atoms: _381  and  _382
REMARK  152  A    between atoms: _388  and  _390
REMARK  153  A    between atoms: _390  and  _391
REMARK  154  A    between atoms: _390  and  _393
REMARK  155  A    between atoms: _393  and  _394
REMARK  156  A    between atoms: _397  and  _399
REMARK  157  A    between atoms: _399  and  _400
REMARK  158  A    between atoms: _399  and  _402
REMARK  159  A    between atoms: _402  and  _403
REMARK  160  A    between atoms: _406  and  _408
REMARK  161  A    between atoms: _408  and  _409
REMARK  162  A    between atoms: _408  and  _411
REMARK  163  A    between atoms: _411  and  _412
REMARK  164  A    between atoms: _412  and  _413
REMARK  165  A    between atoms: _413  and  _414
REMARK  166  A    between atoms: _423  and  _425
REMARK  167  A    between atoms: _425  and  _426
REMARK  168  A    between atoms: _425  and  _428
REMARK  169  A    between atoms: _428  and  _429
REMARK  170  A    between atoms: _434  and  _436
REMARK  171  A    between atoms: _436  and  _437
REMARK  172  A    between atoms: _436  and  _439
REMARK  173  A    between atoms: _439  and  _440
REMARK  174  A    between atoms: _440  and  _441
REMARK  175  A    between atoms: _441  and  _442
REMARK  176  A    between atoms: _451  and  _453
REMARK  177  A    between atoms: _453  and  _454
REMARK  178  A    between atoms: _457  and  _459
REMARK  179  A    between atoms: _459  and  _460
REMARK  180  A    between atoms: _462  and  _464
REMARK  181  A    between atoms: _464  and  _465
REMARK  182  A    between atoms: _464  and  _467
REMARK  183  A    between atoms: _467  and  _468
REMARK  184  A    between atoms: _478  and  _480
REMARK  185  A    between atoms: _480  and  _481
REMARK  186  A    between atoms: _480  and  _483
REMARK  187  A    between atoms: _483  and  _484
REMARK  188  A    between atoms: _485  and  _487
REMARK  189  A    between atoms: _487  and  _488
REMARK  190  A    between atoms: _491  and  _493
REMARK  191  A    between atoms: _493  and  _494
REMARK  192  A    between atoms: _493  and  _496
REMARK  193  A    between atoms: _496  and  _497
REMARK  194  A    between atoms: _500  and  _502
REMARK  195  A    between atoms: _502  and  _503
REMARK  196  A    between atoms: _502  and  _505
REMARK  197  A    between atoms: _505  and  _506
REMARK  198  A    between atoms: _511  and  _512
REMARK  199  A    between atoms: _514  and  _516
REMARK  200  A    between atoms: _516  and  _517
REMARK  201  A    between atoms: _516  and  _519
REMARK  202  A    between atoms: _519  and  _520
REMARK  203  A    between atoms: _522  and  _524
REMARK  204  A    between atoms: _524  and  _525
REMARK  205  A    between atoms: _524  and  _527
REMARK  206  A    between atoms: _527  and  _528
REMARK  207  A    between atoms: _534  and  _536
REMARK  208  A    between atoms: _536  and  _537
REMARK  209  A    between atoms: _536  and  _539
REMARK  210  A    between atoms: _539  and  _540
REMARK  211  A    between atoms: _543  and  _545
REMARK  212  A    between atoms: _545  and  _546
REMARK  213  A    between atoms: _545  and  _548
REMARK  214  A    between atoms: _548  and  _549
REMARK  215  A    between atoms: _551  and  _553
REMARK  216  A    between atoms: _553  and  _554
REMARK  217  A    between atoms: _553  and  _556
REMARK  218  A    between atoms: _556  and  _557
REMARK  219  A    between atoms: _562  and  _564
REMARK  220  A    between atoms: _564  and  _565
REMARK  221  A    between atoms: _564  and  _567
REMARK  222  A    between atoms: _567  and  _568
REMARK  223  A    between atoms: _573  and  _575
REMARK  224  A    between atoms: _575  and  _576
REMARK  225  A    between atoms: _575  and  _578
REMARK  226  A    between atoms: _578  and  _579
REMARK  227  A    between atoms: _582  and  _584
REMARK  228  A    between atoms: _584  and  _585
REMARK  229  A    between atoms: _588  and  _590
REMARK  230  A    between atoms: _590  and  _591
REMARK  231  A    between atoms: _590  and  _593
REMARK  232  A    between atoms: _593  and  _594
REMARK  233  A    between atoms: _599  and  _600
REMARK  234  A    between atoms: _602  and  _604
REMARK  235  A    between atoms: _604  and  _605
REMARK  236  A    between atoms: _604  and  _607
REMARK  237  A    between atoms: _607  and  _608
REMARK  238  A    between atoms: _613  and  _614
REMARK  239  A    between atoms: _616  and  _618
REMARK  240  A    between atoms: _618  and  _619
REMARK  241  A    between atoms: _618  and  _621
REMARK  242  A    between atoms: _624  and  _626
REMARK  243  A    between atoms: _626  and  _627
REMARK  244  A    between atoms: _626  and  _629
REMARK  245  A    between atoms: _629  and  _630
REMARK  246  A    between atoms: _635  and  _637
REMARK  247  A    between atoms: _637  and  _638
REMARK  248  A    between atoms: _641  and  _643
REMARK  249  A    between atoms: _643  and  _644
REMARK  250  A    between atoms: _643  and  _646
REMARK  251  A    between atoms: _646  and  _647
REMARK  252  A    between atoms: _647  and  _648
REMARK  253  A    between atoms: _648  and  _649
REMARK  254  A    between atoms: _658  and  _660
REMARK  255  A    between atoms: _660  and  _661
REMARK  256  A    between atoms: _660  and  _663
REMARK  257  A    between atoms: _663  and  _664
REMARK  258  A    between atoms: _667  and  _669
REMARK  259  A    between atoms: _669  and  _670
REMARK  260  A    between atoms: _669  and  _672
REMARK  261  A    between atoms: _672  and  _673
REMARK  262  A    between atoms: _676  and  _678
REMARK  263  A    between atoms: _678  and  _679
REMARK  264  A    between atoms: _678  and  _681
REMARK  265  A    between atoms: _681  and  _682
REMARK  266  A    between atoms: _687  and  _689
REMARK  267  A    between atoms: _689  and  _690
REMARK  268  A    between atoms: _689  and  _692
REMARK  269  A    between atoms: _692  and  _693
REMARK                            x       y       z     vdW  Elec       q    Type
REMARK                         _______ _______ _______ _____ _____    ______ ____
ROOT
ATOM      1  CG  TYR A   1      40.769  27.361  32.737  0.00  0.00    -0.020 A 
ATOM      2  CD2 TYR A   1      40.382  28.663  32.472  0.00  0.00    -0.001 A 
ATOM      3  CE2 TYR A   1      41.172  29.483  31.685  0.00  0.00    +0.036 A 
ATOM      4  CZ  TYR A   1      42.391  29.025  31.214  0.00  0.00    +0.134 A 
ATOM      5  CE1 TYR A   1      42.818  27.715  31.454  0.00  0.00    +0.036 A 
ATOM      6  CD1 TYR A   1      42.023  26.918  32.266  0.00  0.00    -0.001 A 
ENDROOT
BRANCH   4   7
ATOM      7  OH  TYR A   1      43.206  29.799  30.420  0.00  0.00    -0.506 OA
ATOM      8  HH  TYR A   1      44.098  29.877  30.842  0.00  0.00    +0.292 HD
ENDBRANCH   4   7
BRANCH   1   9
ATOM      9  CB  TYR A   1      40.018  26.428  33.647  0.00  0.00    +0.051 C 
BRANCH   9  10
ATOM     10  CA  TYR A   1      38.521  26.312  33.476  0.00  0.00    +0.137 C 
BRANCH  10  11
ATOM     11  N   TYR A   1      37.928  25.400  34.461  0.00  0.00    -0.239 NA
ATOM     12  H   TYR A   1      38.450  24.558  34.776  0.00  0.00    +0.142 HD
ENDBRANCH  10  11
BRANCH  10  13
ATOM     13  C   TYR A   1      38.170  25.772  32.087  0.00  0.00    +0.224 C 
ATOM     14  O   TYR A   1      37.545  26.446  31.258  0.00  0.00    -0.287 OA
ENDBRANCH  10  13
ENDBRANCH   9  10
ENDBRANCH   1   9
TORSDOF 5
REMARK  Name = ../refined-set-2016/1b7h/1b7h_pocket.pdb
REMARK  269 active torsions:
REMARK  status: ('A' for Active; 'I' for Inactive)
REMARK    1  A    between atoms: _1  and  _3
REMARK    2  A    between atoms: _3  and  _4
REMARK    3  A    between atoms: _6  and  _8
REMARK    4  A    between atoms: _8  and  _9
REMARK    5  A    between atoms: _8  and  _11
REMARK    6  A    between atoms: _11  and  _12
REMARK    7  A    between atoms: _14  and  _16
REMARK    8  A    between atoms: _16  and  _17
REMARK    9  A    between atoms: _16  and  _19
REMARK   10  A    between atoms: _19  and  _20
REMARK   11  A    between atoms: _20  and  _21
REMARK   12  A    between atoms: _26  and  _28
REMARK   13  A    between atoms: _28  and  _29
REMARK   14  A    between atoms: _28  and  _31
REMARK   15  A    between atoms: _31  and  _32
REMARK   16  A    between atoms: _35  and  _37
REMARK   17  A    between atoms: _37  and  _38
REMARK   18  A    between atoms: _37  and  _40
REMARK   19  A    between atoms: _40  and  _41
REMARK   20  A    between atoms: _41  and  _42
REMARK   21  A    between atoms: _45  and  _47
REMARK   22  A    between atoms: _47  and  _48
REMARK   23  A    between atoms: _50  and  _52
REMARK   24  A    between atoms: _52  and  _53
REMARK   25  A    between atoms: _52  and  _55
REMARK   26  A    between atoms: _59  and  _60
REMARK   27  A    between atoms: _65  and  _67
REMARK   28  A    between atoms: _67  and  _68
REMARK   29  A    between atoms: _67  and  _70
REMARK   30  A    between atoms: _70  and  _71
REMARK   31  A    between atoms: _71  and  _72
REMARK   32  A    between atoms: _75  and  _77
REMARK   33  A    between atoms: _77  and  _78
REMARK   34  A    between atoms: _77  and  _80
REMARK   35  A    between atoms: _80  and  _81
REMARK   36  A    between atoms: _83  and  _85
REMARK   37  A    between atoms: _85  and  _86
REMARK   38  A    between atoms: _85  and  _88
REMARK   39  A    between atoms: _88  and  _89
REMARK   40  A    between atoms: _94  and  _96
REMARK   41  A    between atoms: _96  and  _97
REMARK   42  A    between atoms: _96  and  _99
REMARK   43  A    between atoms: _99  and  _100
REMARK   44  A    between atoms: _100  and  _101
REMARK   45  A    between atoms: _101  and  _102
REMARK   46  A    between atoms: _112  and  _113
REMARK   47  A    between atoms: _118  and  _120
REMARK   48  A    between atoms: _120  and  _121
REMARK   49  A    between atoms: _120  and  _123
REMARK   50  A    between atoms: _123  and  _124
REMARK   51  A    between atoms: _129  and  _130
REMARK   52  A    between atoms: _132  and  _134
REMARK   53  A    between atoms: _134  and  _135
REMARK   54  A    between atoms: _134  and  _137
REMARK   55  A    between atoms: _137  and  _138
REMARK   56  A    between atoms: _143  and  _144
REMARK   57  A    between atoms: _146  and  _148
REMARK   58  A    between atoms: _148  and  _149
REMARK   59  A    between atoms: _148  and  _151
REMARK   60  A    between atoms: _154  and  _156
REMARK   61  A    between atoms: _156  and  _157
REMARK   62  A    between atoms: _156  and  _159
REMARK   63  A    between atoms: _159  and  _160
REMARK   64  A    between atoms: _166  and  _167
REMARK   65  A    between atoms: _172  and  _174
REMARK   66  A    between atoms: _174  and  _175
REMARK   67  A    between atoms: _174  and  _177
REMARK   68  A    between atoms: _177  and  _178
REMARK   69  A    between atoms: _180  and  _182
REMARK   70  A    between atoms: _182  and  _183
REMARK   71  A    between atoms: _182  and  _185
REMARK   72  A    between atoms: _185  and  _186
REMARK   73  A    between atoms: _191  and  _192
REMARK   74  A    between atoms: _194  and  _196
REMARK   75  A    between atoms: _196  and  _197
REMARK   76  A    between atoms: _196  and  _199
REMARK   77  A    between atoms: _199  and  _200
REMARK   78  A    between atoms: _205  and  _207
REMARK   79  A    between atoms: _207  and  _208
REMARK   80  A    between atoms: _207  and  _210
REMARK   81  A    between atoms: _210  and  _211
REMARK   82  A    between atoms: _216  and  _218
REMARK   83  A    between atoms: _218  and  _219
REMARK   84  A    between atoms: _218  and  _221
REMARK   85  A    between atoms: _221  and  _222
REMARK   86  A    between atoms: _222  and  _223
REMARK   87  A    between atoms: _225  and  _227
REMARK   88  A    between atoms: _227  and  _228
REMARK   89  A    between atoms: _227  and  _230
REMARK   90  A    between atoms: _230  and  _231
REMARK   91  A    between atoms: _236  and  _237
REMARK   92  A    between atoms: _239  and  _241
REMARK   93  A    between atoms: _241  and  _242
REMARK   94  A    between atoms: _241  and  _244
REMARK   95  A    between atoms: _244  and  _245
REMARK   96  A    between atoms: _248  and  _250
REMARK   97  A    between atoms: _250  and  _251
REMARK   98  A    between atoms: _250  and  _253
REMARK   99  A    between atoms: _253  and  _254
REMARK  100  A    between atoms: _254  and  _484
REMARK  101  A    between atoms: _255  and  _257
REMARK  102  A    between atoms: _257  and  _258
REMARK  103  A    between atoms: _257  and  _260
REMARK  104  A    between atoms: _260  and  _261
REMARK  105  A    between atoms: _264  and  _266
REMARK  106  A    between atoms: _266  and  _267
REMARK  107  A    between atoms: _266  and  _269
REMARK  108  A    between atoms: _269  and  _270
REMARK  109  A    between atoms: _275  and  _276
REMARK  110  A    between atoms: _278  and  _280
REMARK  111  A    between atoms: _280  and  _281
REMARK  112  A    between atoms: _280  and  _283
REMARK  113  A    between atoms: _283  and  _284
REMARK  114  A    between atoms: _289  and  _290
REMARK  115  A    between atoms: _292  and  _294
REMARK  116  A    between atoms: _294  and  _295
REMARK  117  A    between atoms: _294  and  _297
REMARK  118  A    between atoms: _297  and  _298
REMARK  119  A    between atoms: _298  and  _299
REMARK  120  A    between atoms: _302  and  _304
REMARK  121  A    between atoms: _304  and  _305
REMARK  122  A    between atoms: _304  and  _307
REMARK  123  A    between atoms: _307  and  _308
REMARK  124  A    between atoms: _308  and  _309
REMARK  125  A    between atoms: _309  and  _310
REMARK  126  A    between atoms: _310  and  _311
REMARK  127  A    between atoms: _315  and  _317
REMARK  128  A    between atoms: _317  and  _318
REMARK  129  A    between atoms: _317  and  _320
REMARK  130  A    between atoms: _320  and  _321
REMARK  131  A    between atoms: _326  and  _327
REMARK  132  A    between atoms: _329  and  _331
REMARK  133  A    between atoms: _331  and  _332
REMARK  134  A    between atoms: _331  and  _334
REMARK  135  A    between atoms: _334  and  _335
REMARK  136  A    between atoms: _340  and  _342
REMARK  137  A    between atoms: _342  and  _343
REMARK  138  A    between atoms: _342  and  _345
REMARK  139  A    between atoms: _345  and  _346
REMARK  140  A    between atoms: _349  and  _351
REMARK  141  A    between atoms: _351  and  _352
REMARK  142  A    between atoms: _351  and  _354
REMARK  143  A    between atoms: _354  and  _355
REMARK  144  A    between atoms: _360  and  _362
REMARK  145  A    between atoms: _362  and  _363
REMARK  146  A    between atoms: _362  and  _365
REMARK  147  A    between atoms: _365  and  _366
REMARK  148  A    between atoms: _376  and  _378
REMARK  149  A    between atoms: _378  and  _379
REMARK  150  A    between atoms: _378  and  _381
REMARK  151  A    between atoms: _381  and  _382
REMARK  152  A    between atoms: _388  and  _390
REMARK  153  A    between atoms: _390  and  _391
REMARK  154  A    between atoms: _390  and  _393
REMARK  155  A    between atoms: _393  and  _394
REMARK  156  A    between atoms: _397  and  _399
REMARK  157  A    between atoms: _399  and  _400
REMARK  158  A    between atoms: _399  and  _402
REMARK  159  A    between atoms: _402  and  _403
REMARK  160  A    between atoms: _406  and  _408
REMARK  161  A    between atoms: _408  and  _409
REMARK  162  A    between atoms: _408  and  _411
REMARK  163  A    between atoms: _411  and  _412
REMARK  164  A    between atoms: _412  and  _413
REMARK  165  A    between atoms: _413  and  _414
REMARK  166  A    between atoms: _423  and  _425
REMARK  167  A    between atoms: _425  and  _426
REMARK  168  A    between atoms: _425  and  _428
REMARK  169  A    between atoms: _428  and  _429
REMARK  170  A    between atoms: _434  and  _436
REMARK  171  A    between atoms: _436  and  _437
REMARK  172  A    between atoms: _436  and  _439
REMARK  173  A    between atoms: _439  and  _440
REMARK  174  A    between atoms: _440  and  _441
REMARK  175  A    between atoms: _441  and  _442
REMARK  176  A    between atoms: _451  and  _453
REMARK  177  A    between atoms: _453  and  _454
REMARK  178  A    between atoms: _457  and  _459
REMARK  179  A    between atoms: _459  and  _460
REMARK  180  A    between atoms: _462  and  _464
REMARK  181  A    between atoms: _464  and  _465
REMARK  182  A    between atoms: _464  and  _467
REMARK  183  A    between atoms: _467  and  _468
REMARK  184  A    between atoms: _478  and  _480
REMARK  185  A    between atoms: _480  and  _481
REMARK  186  A    between atoms: _480  and  _483
REMARK  187  A    between atoms: _483  and  _484
REMARK  188  A    between atoms: _485  and  _487
REMARK  189  A    between atoms: _487  and  _488
REMARK  190  A    between atoms: _491  and  _493
REMARK  191  A    between atoms: _493  and  _494
REMARK  192  A    between atoms: _493  and  _496
REMARK  193  A    between atoms: _496  and  _497
REMARK  194  A    between atoms: _500  and  _502
REMARK  195  A    between atoms: _502  and  _503
REMARK  196  A    between atoms: _502  and  _505
REMARK  197  A    between atoms: _505  and  _506
REMARK  198  A    between atoms: _511  and  _512
REMARK  199  A    between atoms: _514  and  _516
REMARK  200  A    between atoms: _516  and  _517
REMARK  201  A    between atoms: _516  and  _519
REMARK  202  A    between atoms: _519  and  _520
REMARK  203  A    between atoms: _522  and  _524
REMARK  204  A    between atoms: _524  and  _525
REMARK  205  A    between atoms: _524  and  _527
REMARK  206  A    between atoms: _527  and  _528
REMARK  207  A    between atoms: _534  and  _536
REMARK  208  A    between atoms: _536  and  _537
REMARK  209  A    between atoms: _536  and  _539
REMARK  210  A    between atoms: _539  and  _540
REMARK  211  A    between atoms: _543  and  _545
REMARK  212  A    between atoms: _545  and  _546
REMARK  213  A    between atoms: _545  and  _548
REMARK  214  A    between atoms: _548  and  _549
REMARK  215  A    between atoms: _551  and  _553
REMARK  216  A    between atoms: _553  and  _554
REMARK  217  A    between atoms: _553  and  _556
REMARK  218  A    between atoms: _556  and  _557
REMARK  219  A    between atoms: _562  and  _564
REMARK  220  A    between atoms: _564  and  _565
REMARK  221  A    between atoms: _564  and  _567
REMARK  222  A    between atoms: _567  and  _568
REMARK  223  A    between atoms: _573  and  _575
REMARK  224  A    between atoms: _575  and  _576
REMARK  225  A    between atoms: _575  and  _578
REMARK  226  A    between atoms: _578  and  _579
REMARK  227  A    between atoms: _582  and  _584
REMARK  228  A    between atoms: _584  and  _585
REMARK  229  A    between atoms: _588  and  _590
REMARK  230  A    between atoms: _590  and  _591
REMARK  231  A    between atoms: _590  and  _593
REMARK  232  A    between atoms: _593  and  _594
REMARK  233  A    between atoms: _599  and  _600
REMARK  234  A    between atoms: _602  and  _604
REMARK  235  A    between atoms: _604  and  _605
REMARK  236  A    between atoms: _604  and  _607
REMARK  237  A    between atoms: _607  and  _608
REMARK  238  A    between atoms: _613  and  _614
REMARK  239  A    between atoms: _616  and  _618
REMARK  240  A    between atoms: _618  and  _619
REMARK  241  A    between atoms: _618  and  _621
REMARK  242  A    between atoms: _624  and  _626
REMARK  243  A    between atoms: _626  and  _627
REMARK  244  A    between atoms: _626  and  _629
REMARK  245  A    between atoms: _629  and  _630
REMARK  246  A    between atoms: _635  and  _637
REMARK  247  A    between atoms: _637  and  _638
REMARK  248  A    between atoms: _641  and  _643
REMARK  249  A    between atoms: _643  and  _644
REMARK  250  A    between atoms: _643  and  _646
REMARK  251  A    between atoms: _646  and  _647
REMARK  252  A    between atoms: _647  and  _648
REMARK  253  A    between atoms: _648  and  _649
REMARK  254  A    between atoms: _658  and  _660
REMARK  255  A    between atoms: _660  and  _661
REMARK  256  A    between atoms: _660  and  _663
REMARK  257  A    between atoms: _663  and  _664
REMARK  258  A    between atoms: _667  and  _669
REMARK  259  A    between atoms: _669  and  _670
REMARK  260  A    between atoms: _669  and  _672
REMARK  261  A    between atoms: _672  and  _673
REMARK  262  A    between atoms: _676  and  _678
REMARK  263  A    between atoms: _678  and  _679
REMARK  264  A    between atoms: _678  and  _681
REMARK  265  A    between atoms: _681  and  _682
REMARK  266  A    between atoms: _687  and  _689
REMARK  267  A    between atoms: _689  and  _690
REMARK  268  A    between atoms: _689  and  _692
REMARK  269  A    between atoms: _692  and  _693
REMARK                            x       y       z     vdW  Elec       q    Type
REMARK                         _______ _______ _______ _____ _____    ______ ____
ROOT
ATOM      1  CB  ASN A   1      38.835  45.076  28.526  0.00  0.00    +0.110 C 
ENDROOT
BRANCH   1   2
ATOM      2  CG  ASN A   1      37.856  43.887  28.310  0.00  0.00    +0.221 C 
ATOM      3  OD1 ASN A   1      37.681  43.112  29.245  0.00  0.00    -0.275 OA
ATOM      4  ND2 ASN A   1      37.216  43.817  27.135  0.00  0.00    -0.329 N 
ATOM      5 HD21 ASN A   1      36.515  43.067  26.968  0.00  0.00    +0.145 HD
ATOM      6 HD22 ASN A   1      37.420  44.513  26.390  0.00  0.00    +0.145 HD
ENDBRANCH   1   2
BRANCH   1   7
ATOM      7  CA  ASN A   1      38.483  45.866  29.794  0.00  0.00    +0.142 C 
BRANCH   7   8
ATOM      8  N   ASN A   1      38.244  45.194  31.045  0.00  0.00    -0.239 NA
ATOM      9  H   ASN A   1      37.930  44.203  31.015  0.00  0.00    +0.142 HD
ENDBRANCH   7   8
BRANCH   7  10
ATOM     10  C   ASN A   1      37.171  46.649  29.503  0.00  0.00    +0.225 C 
ATOM     11  O   ASN A   1      36.107  46.080  29.600  0.00  0.00    -0.287 OA
ENDBRANCH   7  10
ENDBRANCH   1   7
TORSDOF 4
REMARK  Name = ../refined-set-2016/1b7h/1b7h_pocket.pdb
REMARK  269 active torsions:
REMARK  status: ('A' for Active; 'I' for Inactive)
REMARK    1  A    between atoms: _1  and  _3
REMARK    2  A    between atoms: _3  and  _4
REMARK    3  A    between atoms: _6  and  _8
REMARK    4  A    between atoms: _8  and  _9
REMARK    5  A    between atoms: _8  and  _11
REMARK    6  A    between atoms: _11  and  _12
REMARK    7  A    between atoms: _14  and  _16
REMARK    8  A    between atoms: _16  and  _17
REMARK    9  A    between atoms: _16  and  _19
REMARK   10  A    between atoms: _19  and  _20
REMARK   11  A    between atoms: _20  and  _21
REMARK   12  A    between atoms: _26  and  _28
REMARK   13  A    between atoms: _28  and  _29
REMARK   14  A    between atoms: _28  and  _31
REMARK   15  A    between atoms: _31  and  _32
REMARK   16  A    between atoms: _35  and  _37
REMARK   17  A    between atoms: _37  and  _38
REMARK   18  A    between atoms: _37  and  _40
REMARK   19  A    between atoms: _40  and  _41
REMARK   20  A    between atoms: _41  and  _42
REMARK   21  A    between atoms: _45  and  _47
REMARK   22  A    between atoms: _47  and  _48
REMARK   23  A    between atoms: _50  and  _52
REMARK   24  A    between atoms: _52  and  _53
REMARK   25  A    between atoms: _52  and  _55
REMARK   26  A    between atoms: _59  and  _60
REMARK   27  A    between atoms: _65  and  _67
REMARK   28  A    between atoms: _67  and  _68
REMARK   29  A    between atoms: _67  and  _70
REMARK   30  A    between atoms: _70  and  _71
REMARK   31  A    between atoms: _71  and  _72
REMARK   32  A    between atoms: _75  and  _77
REMARK   33  A    between atoms: _77  and  _78
REMARK   34  A    between atoms: _77  and  _80
REMARK   35  A    between atoms: _80  and  _81
REMARK   36  A    between atoms: _83  and  _85
REMARK   37  A    between atoms: _85  and  _86
REMARK   38  A    between atoms: _85  and  _88
REMARK   39  A    between atoms: _88  and  _89
REMARK   40  A    between atoms: _94  and  _96
REMARK   41  A    between atoms: _96  and  _97
REMARK   42  A    between atoms: _96  and  _99
REMARK   43  A    between atoms: _99  and  _100
REMARK   44  A    between atoms: _100  and  _101
REMARK   45  A    between atoms: _101  and  _102
REMARK   46  A    between atoms: _112  and  _113
REMARK   47  A    between atoms: _118  and  _120
REMARK   48  A    between atoms: _120  and  _121
REMARK   49  A    between atoms: _120  and  _123
REMARK   50  A    between atoms: _123  and  _124
REMARK   51  A    between atoms: _129  and  _130
REMARK   52  A    between atoms: _132  and  _134
REMARK   53  A    between atoms: _134  and  _135
REMARK   54  A    between atoms: _134  and  _137
REMARK   55  A    between atoms: _137  and  _138
REMARK   56  A    between atoms: _143  and  _144
REMARK   57  A    between atoms: _146  and  _148
REMARK   58  A    between atoms: _148  and  _149
REMARK   59  A    between atoms: _148  and  _151
REMARK   60  A    between atoms: _154  and  _156
REMARK   61  A    between atoms: _156  and  _157
REMARK   62  A    between atoms: _156  and  _159
REMARK   63  A    between atoms: _159  and  _160
REMARK   64  A    between atoms: _166  and  _167
REMARK   65  A    between atoms: _172  and  _174
REMARK   66  A    between atoms: _174  and  _175
REMARK   67  A    between atoms: _174  and  _177
REMARK   68  A    between atoms: _177  and  _178
REMARK   69  A    between atoms: _180  and  _182
REMARK   70  A    between atoms: _182  and  _183
REMARK   71  A    between atoms: _182  and  _185
REMARK   72  A    between atoms: _185  and  _186
REMARK   73  A    between atoms: _191  and  _192
REMARK   74  A    between atoms: _194  and  _196
REMARK   75  A    between atoms: _196  and  _197
REMARK   76  A    between atoms: _196  and  _199
REMARK   77  A    between atoms: _199  and  _200
REMARK   78  A    between atoms: _205  and  _207
REMARK   79  A    between atoms: _207  and  _208
REMARK   80  A    between atoms: _207  and  _210
REMARK   81  A    between atoms: _210  and  _211
REMARK   82  A    between atoms: _216  and  _218
REMARK   83  A    between atoms: _218  and  _219
REMARK   84  A    between atoms: _218  and  _221
REMARK   85  A    between atoms: _221  and  _222
REMARK   86  A    between atoms: _222  and  _223
REMARK   87  A    between atoms: _225  and  _227
REMARK   88  A    between atoms: _227  and  _228
REMARK   89  A    between atoms: _227  and  _230
REMARK   90  A    between atoms: _230  and  _231
REMARK   91  A    between atoms: _236  and  _237
REMARK   92  A    between atoms: _239  and  _241
REMARK   93  A    between atoms: _241  and  _242
REMARK   94  A    between atoms: _241  and  _244
REMARK   95  A    between atoms: _244  and  _245
REMARK   96  A    between atoms: _248  and  _250
REMARK   97  A    between atoms: _250  and  _251
REMARK   98  A    between atoms: _250  and  _253
REMARK   99  A    between atoms: _253  and  _254
REMARK  100  A    between atoms: _254  and  _484
REMARK  101  A    between atoms: _255  and  _257
REMARK  102  A    between atoms: _257  and  _258
REMARK  103  A    between atoms: _257  and  _260
REMARK  104  A    between atoms: _260  and  _261
REMARK  105  A    between atoms: _264  and  _266
REMARK  106  A    between atoms: _266  and  _267
REMARK  107  A    between atoms: _266  and  _269
REMARK  108  A    between atoms: _269  and  _270
REMARK  109  A    between atoms: _275  and  _276
REMARK  110  A    between atoms: _278  and  _280
REMARK  111  A    between atoms: _280  and  _281
REMARK  112  A    between atoms: _280  and  _283
REMARK  113  A    between atoms: _283  and  _284
REMARK  114  A    between atoms: _289  and  _290
REMARK  115  A    between atoms: _292  and  _294
REMARK  116  A    between atoms: _294  and  _295
REMARK  117  A    between atoms: _294  and  _297
REMARK  118  A    between atoms: _297  and  _298
REMARK  119  A    between atoms: _298  and  _299
REMARK  120  A    between atoms: _302  and  _304
REMARK  121  A    between atoms: _304  and  _305
REMARK  122  A    between atoms: _304  and  _307
REMARK  123  A    between atoms: _307  and  _308
REMARK  124  A    between atoms: _308  and  _309
REMARK  125  A    between atoms: _309  and  _310
REMARK  126  A    between atoms: _310  and  _311
REMARK  127  A    between atoms: _315  and  _317
REMARK  128  A    between atoms: _317  and  _318
REMARK  129  A    between atoms: _317  and  _320
REMARK  130  A    between atoms: _320  and  _321
REMARK  131  A    between atoms: _326  and  _327
REMARK  132  A    between atoms: _329  and  _331
REMARK  133  A    between atoms: _331  and  _332
REMARK  134  A    between atoms: _331  and  _334
REMARK  135  A    between atoms: _334  and  _335
REMARK  136  A    between atoms: _340  and  _342
REMARK  137  A    between atoms: _342  and  _343
REMARK  138  A    between atoms: _342  and  _345
REMARK  139  A    between atoms: _345  and  _346
REMARK  140  A    between atoms: _349  and  _351
REMARK  141  A    between atoms: _351  and  _352
REMARK  142  A    between atoms: _351  and  _354
REMARK  143  A    between atoms: _354  and  _355
REMARK  144  A    between atoms: _360  and  _362
REMARK  145  A    between atoms: _362  and  _363
REMARK  146  A    between atoms: _362  and  _365
REMARK  147  A    between atoms: _365  and  _366
REMARK  148  A    between atoms: _376  and  _378
REMARK  149  A    between atoms: _378  and  _379
REMARK  150  A    between atoms: _378  and  _381
REMARK  151  A    between atoms: _381  and  _382
REMARK  152  A    between atoms: _388  and  _390
REMARK  153  A    between atoms: _390  and  _391
REMARK  154  A    between atoms: _390  and  _393
REMARK  155  A    between atoms: _393  and  _394
REMARK  156  A    between atoms: _397  and  _399
REMARK  157  A    between atoms: _399  and  _400
REMARK  158  A    between atoms: _399  and  _402
REMARK  159  A    between atoms: _402  and  _403
REMARK  160  A    between atoms: _406  and  _408
REMARK  161  A    between atoms: _408  and  _409
REMARK  162  A    between atoms: _408  and  _411
REMARK  163  A    between atoms: _411  and  _412
REMARK  164  A    between atoms: _412  and  _413
REMARK  165  A    between atoms: _413  and  _414
REMARK  166  A    between atoms: _423  and  _425
REMARK  167  A    between atoms: _425  and  _426
REMARK  168  A    between atoms: _425  and  _428
REMARK  169  A    between atoms: _428  and  _429
REMARK  170  A    between atoms: _434  and  _436
REMARK  171  A    between atoms: _436  and  _437
REMARK  172  A    between atoms: _436  and  _439
REMARK  173  A    between atoms: _439  and  _440
REMARK  174  A    between atoms: _440  and  _441
REMARK  175  A    between atoms: _441  and  _442
REMARK  176  A    between atoms: _451  and  _453
REMARK  177  A    between atoms: _453  and  _454
REMARK  178  A    between atoms: _457  and  _459
REMARK  179  A    between atoms: _459  and  _460
REMARK  180  A    between atoms: _462  and  _464
REMARK  181  A    between atoms: _464  and  _465
REMARK  182  A    between atoms: _464  and  _467
REMARK  183  A    between atoms: _467  and  _468
REMARK  184  A    between atoms: _478  and  _480
REMARK  185  A    between atoms: _480  and  _481
REMARK  186  A    between atoms: _480  and  _483
REMARK  187  A    between atoms: _483  and  _484
REMARK  188  A    between atoms: _485  and  _487
REMARK  189  A    between atoms: _487  and  _488
REMARK  190  A    between atoms: _491  and  _493
REMARK  191  A    between atoms: _493  and  _494
REMARK  192  A    between atoms: _493  and  _496
REMARK  193  A    between atoms: _496  and  _497
REMARK  194  A    between atoms: _500  and  _502
REMARK  195  A    between atoms: _502  and  _503
REMARK  196  A    between atoms: _502  and  _505
REMARK  197  A    between atoms: _505  and  _506
REMARK  198  A    between atoms: _511  and  _512
REMARK  199  A    between atoms: _514  and  _516
REMARK  200  A    between atoms: _516  and  _517
REMARK  201  A    between atoms: _516  and  _519
REMARK  202  A    between atoms: _519  and  _520
REMARK  203  A    between atoms: _522  and  _524
REMARK  204  A    between atoms: _524  and  _525
REMARK  205  A    between atoms: _524  and  _527
REMARK  206  A    between atoms: _527  and  _528
REMARK  207  A    between atoms: _534  and  _536
REMARK  208  A    between atoms: _536  and  _537
REMARK  209  A    between atoms: _536  and  _539
REMARK  210  A    between atoms: _539  and  _540
REMARK  211  A    between atoms: _543  and  _545
REMARK  212  A    between atoms: _545  and  _546
REMARK  213  A    between atoms: _545  and  _548
REMARK  214  A    between atoms: _548  and  _549
REMARK  215  A    between atoms: _551  and  _553
REMARK  216  A    between atoms: _553  and  _554
REMARK  217  A    between atoms: _553  and  _556
REMARK  218  A    between atoms: _556  and  _557
REMARK  219  A    between atoms: _562  and  _564
REMARK  220  A    between atoms: _564  and  _565
REMARK  221  A    between atoms: _564  and  _567
REMARK  222  A    between atoms: _567  and  _568
REMARK  223  A    between atoms: _573  and  _575
REMARK  224  A    between atoms: _575  and  _576
REMARK  225  A    between atoms: _575  and  _578
REMARK  226  A    between atoms: _578  and  _579
REMARK  227  A    between atoms: _582  and  _584
REMARK  228  A    between atoms: _584  and  _585
REMARK  229  A    between atoms: _588  and  _590
REMARK  230  A    between atoms: _590  and  _591
REMARK  231  A    between atoms: _590  and  _593
REMARK  232  A    between atoms: _593  and  _594
REMARK  233  A    between atoms: _599  and  _600
REMARK  234  A    between atoms: _602  and  _604
REMARK  235  A    between atoms: _604  and  _605
REMARK  236  A    between atoms: _604  and  _607
REMARK  237  A    between atoms: _607  and  _608
REMARK  238  A    between atoms: _613  and  _614
REMARK  239  A    between atoms: _616  and  _618
REMARK  240  A    between atoms: _618  and  _619
REMARK  241  A    between atoms: _618  and  _621
REMARK  242  A    between atoms: _624  and  _626
REMARK  243  A    between atoms: _626  and  _627
REMARK  244  A    between atoms: _626  and  _629
REMARK  245  A    between atoms: _629  and  _630
REMARK  246  A    between atoms: _635  and  _637
REMARK  247  A    between atoms: _637  and  _638
REMARK  248  A    between atoms: _641  and  _643
REMARK  249  A    between atoms: _643  and  _644
REMARK  250  A    between atoms: _643  and  _646
REMARK  251  A    between atoms: _646  and  _647
REMARK  252  A    between atoms: _647  and  _648
REMARK  253  A    between atoms: _648  and  _649
REMARK  254  A    between atoms: _658  and  _660
REMARK  255  A    between atoms: _660  and  _661
REMARK  256  A    between atoms: _660  and  _663
REMARK  257  A    between atoms: _663  and  _664
REMARK  258  A    between atoms: _667  and  _669
REMARK  259  A    between atoms: _669  and  _670
REMARK  260  A    between atoms: _669  and  _672
REMARK  261  A    between atoms: _672  and  _673
REMARK  262  A    between atoms: _676  and  _678
REMARK  263  A    between atoms: _678  and  _679
REMARK  264  A    between atoms: _678  and  _681
REMARK  265  A    between atoms: _681  and  _682
REMARK  266  A    between atoms: _687  and  _689
REMARK  267  A    between atoms: _689  and  _690
REMARK  268  A    between atoms: _689  and  _692
REMARK  269  A    between atoms: _692  and  _693
REMARK                            x       y       z     vdW  Elec       q    Type
REMARK                         _______ _______ _______ _____ _____    ______ ____
ROOT
ATOM      1  C   LEU A   1      29.740  43.838  30.795  0.00  0.00    +0.238 C 
ATOM      2  O   LEU A   1      29.256  43.497  31.904  0.00  0.00    -0.274 OA
ATOM      3  N   HIS A   2      31.078  44.008  30.635  0.00  0.00    -0.298 N 
ATOM      4  H   HIS A   2      31.446  44.384  29.738  0.00  0.00    +0.150 HD
ENDROOT
BRANCH   1   5
ATOM      5  CA  LEU A   1      28.849  44.130  29.587  0.00  0.00    +0.145 C 
BRANCH   5   6
ATOM      6  N   LEU A   1      29.052  45.437  29.055  0.00  0.00    -0.238 NA
ATOM      7  H   LEU A   1      29.387  45.526  28.075  0.00  0.00    +0.142 HD
ENDBRANCH   5   6
BRANCH   5   8
ATOM      8  CB  LEU A   1      29.007  43.019  28.518  0.00  0.00    +0.026 C 
BRANCH   8   9
ATOM      9  CG  LEU A   1      28.917  41.598  29.115  0.00  0.00    +0.002 C 
ATOM     10  CD2 LEU A   1      27.532  41.338  29.706  0.00  0.00    +0.000 C 
ATOM     11  CD1 LEU A   1      29.330  40.539  28.099  0.00  0.00    +0.000 C 
ENDBRANCH   8   9
ENDBRANCH   5   8
ENDBRANCH   1   5
BRANCH   3  12
ATOM     12  CA  HIS A   2      31.996  43.670  31.702  0.00  0.00    +0.143 C 
BRANCH  12  13
ATOM     13  C   HIS A   2      31.810  44.603  32.918  0.00  0.00    +0.227 C 
ATOM     14  O   HIS A   2      31.968  44.194  34.052  0.00  0.00    -0.286 OA
ENDBRANCH  12  13
BRANCH  12  15
ATOM     15  CB  HIS A   2      33.503  43.704  31.257  0.00  0.00    +0.075 C 
BRANCH  15  16
ATOM     16  CG  HIS A   2      33.710  42.706  30.171  0.00  0.00    +0.082 A 
ATOM     17  ND1 HIS A   2      33.088  41.461  30.210  0.00  0.00    -0.227 NA
ATOM     18  CE1 HIS A   2      33.386  40.773  29.127  0.00  0.00    +0.199 A 
ATOM     19  NE2 HIS A   2      34.138  41.561  28.353  0.00  0.00    -0.221 NA
ATOM     20  CD2 HIS A   2      34.340  42.779  28.956  0.00  0.00    +0.115 A 
ENDBRANCH  15  16
ENDBRANCH  12  15
ENDBRANCH   3  12
TORSDOF 8
REMARK  Name = ../refined-set-2016/1b7h/1b7h_pocket.pdb
REMARK  269 active torsions:
REMARK  status: ('A' for Active; 'I' for Inactive)
REMARK    1  A    between atoms: _1  and  _3
REMARK    2  A    between atoms: _3  and  _4
REMARK    3  A    between atoms: _6  and  _8
REMARK    4  A    between atoms: _8  and  _9
REMARK    5  A    between atoms: _8  and  _11
REMARK    6  A    between atoms: _11  and  _12
REMARK    7  A    between atoms: _14  and  _16
REMARK    8  A    between atoms: _16  and  _17
REMARK    9  A    between atoms: _16  and  _19
REMARK   10  A    between atoms: _19  and  _20
REMARK   11  A    between atoms: _20  and  _21
REMARK   12  A    between atoms: _26  and  _28
REMARK   13  A    between atoms: _28  and  _29
REMARK   14  A    between atoms: _28  and  _31
REMARK   15  A    between atoms: _31  and  _32
REMARK   16  A    between atoms: _35  and  _37
REMARK   17  A    between atoms: _37  and  _38
REMARK   18  A    between atoms: _37  and  _40
REMARK   19  A    between atoms: _40  and  _41
REMARK   20  A    between atoms: _41  and  _42
REMARK   21  A    between atoms: _45  and  _47
REMARK   22  A    between atoms: _47  and  _48
REMARK   23  A    between atoms: _50  and  _52
REMARK   24  A    between atoms: _52  and  _53
REMARK   25  A    between atoms: _52  and  _55
REMARK   26  A    between atoms: _59  and  _60
REMARK   27  A    between atoms: _65  and  _67
REMARK   28  A    between atoms: _67  and  _68
REMARK   29  A    between atoms: _67  and  _70
REMARK   30  A    between atoms: _70  and  _71
REMARK   31  A    between atoms: _71  and  _72
REMARK   32  A    between atoms: _75  and  _77
REMARK   33  A    between atoms: _77  and  _78
REMARK   34  A    between atoms: _77  and  _80
REMARK   35  A    between atoms: _80  and  _81
REMARK   36  A    between atoms: _83  and  _85
REMARK   37  A    between atoms: _85  and  _86
REMARK   38  A    between atoms: _85  and  _88
REMARK   39  A    between atoms: _88  and  _89
REMARK   40  A    between atoms: _94  and  _96
REMARK   41  A    between atoms: _96  and  _97
REMARK   42  A    between atoms: _96  and  _99
REMARK   43  A    between atoms: _99  and  _100
REMARK   44  A    between atoms: _100  and  _101
REMARK   45  A    between atoms: _101  and  _102
REMARK   46  A    between atoms: _112  and  _113
REMARK   47  A    between atoms: _118  and  _120
REMARK   48  A    between atoms: _120  and  _121
REMARK   49  A    between atoms: _120  and  _123
REMARK   50  A    between atoms: _123  and  _124
REMARK   51  A    between atoms: _129  and  _130
REMARK   52  A    between atoms: _132  and  _134
REMARK   53  A    between atoms: _134  and  _135
REMARK   54  A    between atoms: _134  and  _137
REMARK   55  A    between atoms: _137  and  _138
REMARK   56  A    between atoms: _143  and  _144
REMARK   57  A    between atoms: _146  and  _148
REMARK   58  A    between atoms: _148  and  _149
REMARK   59  A    between atoms: _148  and  _151
REMARK   60  A    between atoms: _154  and  _156
REMARK   61  A    between atoms: _156  and  _157
REMARK   62  A    between atoms: _156  and  _159
REMARK   63  A    between atoms: _159  and  _160
REMARK   64  A    between atoms: _166  and  _167
REMARK   65  A    between atoms: _172  and  _174
REMARK   66  A    between atoms: _174  and  _175
REMARK   67  A    between atoms: _174  and  _177
REMARK   68  A    between atoms: _177  and  _178
REMARK   69  A    between atoms: _180  and  _182
REMARK   70  A    between atoms: _182  and  _183
REMARK   71  A    between atoms: _182  and  _185
REMARK   72  A    between atoms: _185  and  _186
REMARK   73  A    between atoms: _191  and  _192
REMARK   74  A    between atoms: _194  and  _196
REMARK   75  A    between atoms: _196  and  _197
REMARK   76  A    between atoms: _196  and  _199
REMARK   77  A    between atoms: _199  and  _200
REMARK   78  A    between atoms: _205  and  _207
REMARK   79  A    between atoms: _207  and  _208
REMARK   80  A    between atoms: _207  and  _210
REMARK   81  A    between atoms: _210  and  _211
REMARK   82  A    between atoms: _216  and  _218
REMARK   83  A    between atoms: _218  and  _219
REMARK   84  A    between atoms: _218  and  _221
REMARK   85  A    between atoms: _221  and  _222
REMARK   86  A    between atoms: _222  and  _223
REMARK   87  A    between atoms: _225  and  _227
REMARK   88  A    between atoms: _227  and  _228
REMARK   89  A    between atoms: _227  and  _230
REMARK   90  A    between atoms: _230  and  _231
REMARK   91  A    between atoms: _236  and  _237
REMARK   92  A    between atoms: _239  and  _241
REMARK   93  A    between atoms: _241  and  _242
REMARK   94  A    between atoms: _241  and  _244
REMARK   95  A    between atoms: _244  and  _245
REMARK   96  A    between atoms: _248  and  _250
REMARK   97  A    between atoms: _250  and  _251
REMARK   98  A    between atoms: _250  and  _253
REMARK   99  A    between atoms: _253  and  _254
REMARK  100  A    between atoms: _254  and  _484
REMARK  101  A    between atoms: _255  and  _257
REMARK  102  A    between atoms: _257  and  _258
REMARK  103  A    between atoms: _257  and  _260
REMARK  104  A    between atoms: _260  and  _261
REMARK  105  A    between atoms: _264  and  _266
REMARK  106  A    between atoms: _266  and  _267
REMARK  107  A    between atoms: _266  and  _269
REMARK  108  A    between atoms: _269  and  _270
REMARK  109  A    between atoms: _275  and  _276
REMARK  110  A    between atoms: _278  and  _280
REMARK  111  A    between atoms: _280  and  _281
REMARK  112  A    between atoms: _280  and  _283
REMARK  113  A    between atoms: _283  and  _284
REMARK  114  A    between atoms: _289  and  _290
REMARK  115  A    between atoms: _292  and  _294
REMARK  116  A    between atoms: _294  and  _295
REMARK  117  A    between atoms: _294  and  _297
REMARK  118  A    between atoms: _297  and  _298
REMARK  119  A    between atoms: _298  and  _299
REMARK  120  A    between atoms: _302  and  _304
REMARK  121  A    between atoms: _304  and  _305
REMARK  122  A    between atoms: _304  and  _307
REMARK  123  A    between atoms: _307  and  _308
REMARK  124  A    between atoms: _308  and  _309
REMARK  125  A    between atoms: _309  and  _310
REMARK  126  A    between atoms: _310  and  _311
REMARK  127  A    between atoms: _315  and  _317
REMARK  128  A    between atoms: _317  and  _318
REMARK  129  A    between atoms: _317  and  _320
REMARK  130  A    between atoms: _320  and  _321
REMARK  131  A    between atoms: _326  and  _327
REMARK  132  A    between atoms: _329  and  _331
REMARK  133  A    between atoms: _331  and  _332
REMARK  134  A    between atoms: _331  and  _334
REMARK  135  A    between atoms: _334  and  _335
REMARK  136  A    between atoms: _340  and  _342
REMARK  137  A    between atoms: _342  and  _343
REMARK  138  A    between atoms: _342  and  _345
REMARK  139  A    between atoms: _345  and  _346
REMARK  140  A    between atoms: _349  and  _351
REMARK  141  A    between atoms: _351  and  _352
REMARK  142  A    between atoms: _351  and  _354
REMARK  143  A    between atoms: _354  and  _355
REMARK  144  A    between atoms: _360  and  _362
REMARK  145  A    between atoms: _362  and  _363
REMARK  146  A    between atoms: _362  and  _365
REMARK  147  A    between atoms: _365  and  _366
REMARK  148  A    between atoms: _376  and  _378
REMARK  149  A    between atoms: _378  and  _379
REMARK  150  A    between atoms: _378  and  _381
REMARK  151  A    between atoms: _381  and  _382
REMARK  152  A    between atoms: _388  and  _390
REMARK  153  A    between atoms: _390  and  _391
REMARK  154  A    between atoms: _390  and  _393
REMARK  155  A    between atoms: _393  and  _394
REMARK  156  A    between atoms: _397  and  _399
REMARK  157  A    between atoms: _399  and  _400
REMARK  158  A    between atoms: _399  and  _402
REMARK  159  A    between atoms: _402  and  _403
REMARK  160  A    between atoms: _406  and  _408
REMARK  161  A    between atoms: _408  and  _409
REMARK  162  A    between atoms: _408  and  _411
REMARK  163  A    between atoms: _411  and  _412
REMARK  164  A    between atoms: _412  and  _413
REMARK  165  A    between atoms: _413  and  _414
REMARK  166  A    between atoms: _423  and  _425
REMARK  167  A    between atoms: _425  and  _426
REMARK  168  A    between atoms: _425  and  _428
REMARK  169  A    between atoms: _428  and  _429
REMARK  170  A    between atoms: _434  and  _436
REMARK  171  A    between atoms: _436  and  _437
REMARK  172  A    between atoms: _436  and  _439
REMARK  173  A    between atoms: _439  and  _440
REMARK  174  A    between atoms: _440  and  _441
REMARK  175  A    between atoms: _441  and  _442
REMARK  176  A    between atoms: _451  and  _453
REMARK  177  A    between atoms: _453  and  _454
REMARK  178  A    between atoms: _457  and  _459
REMARK  179  A    between atoms: _459  and  _460
REMARK  180  A    between atoms: _462  and  _464
REMARK  181  A    between atoms: _464  and  _465
REMARK  182  A    between atoms: _464  and  _467
REMARK  183  A    between atoms: _467  and  _468
REMARK  184  A    between atoms: _478  and  _480
REMARK  185  A    between atoms: _480  and  _481
REMARK  186  A    between atoms: _480  and  _483
REMARK  187  A    between atoms: _483  and  _484
REMARK  188  A    between atoms: _485  and  _487
REMARK  189  A    between atoms: _487  and  _488
REMARK  190  A    between atoms: _491  and  _493
REMARK  191  A    between atoms: _493  and  _494
REMARK  192  A    between atoms: _493  and  _496
REMARK  193  A    between atoms: _496  and  _497
REMARK  194  A    between atoms: _500  and  _502
REMARK  195  A    between atoms: _502  and  _503
REMARK  196  A    between atoms: _502  and  _505
REMARK  197  A    between atoms: _505  and  _506
REMARK  198  A    between atoms: _511  and  _512
REMARK  199  A    between atoms: _514  and  _516
REMARK  200  A    between atoms: _516  and  _517
REMARK  201  A    between atoms: _516  and  _519
REMARK  202  A    between atoms: _519  and  _520
REMARK  203  A    between atoms: _522  and  _524
REMARK  204  A    between atoms: _524  and  _525
REMARK  205  A    between atoms: _524  and  _527
REMARK  206  A    between atoms: _527  and  _528
REMARK  207  A    between atoms: _534  and  _536
REMARK  208  A    between atoms: _536  and  _537
REMARK  209  A    between atoms: _536  and  _539
REMARK  210  A    between atoms: _539  and  _540
REMARK  211  A    between atoms: _543  and  _545
REMARK  212  A    between atoms: _545  and  _546
REMARK  213  A    between atoms: _545  and  _548
REMARK  214  A    between atoms: _548  and  _549
REMARK  215  A    between atoms: _551  and  _553
REMARK  216  A    between atoms: _553  and  _554
REMARK  217  A    between atoms: _553  and  _556
REMARK  218  A    between atoms: _556  and  _557
REMARK  219  A    between atoms: _562  and  _564
REMARK  220  A    between atoms: _564  and  _565
REMARK  221  A    between atoms: _564  and  _567
REMARK  222  A    between atoms: _567  and  _568
REMARK  223  A    between atoms: _573  and  _575
REMARK  224  A    between atoms: _575  and  _576
REMARK  225  A    between atoms: _575  and  _578
REMARK  226  A    between atoms: _578  and  _579
REMARK  227  A    between atoms: _582  and  _584
REMARK  228  A    between atoms: _584  and  _585
REMARK  229  A    between atoms: _588  and  _590
REMARK  230  A    between atoms: _590  and  _591
REMARK  231  A    between atoms: _590  and  _593
REMARK  232  A    between atoms: _593  and  _594
REMARK  233  A    between atoms: _599  and  _600
REMARK  234  A    between atoms: _602  and  _604
REMARK  235  A    between atoms: _604  and  _605
REMARK  236  A    between atoms: _604  and  _607
REMARK  237  A    between atoms: _607  and  _608
REMARK  238  A    between atoms: _613  and  _614
REMARK  239  A    between atoms: _616  and  _618
REMARK  240  A    between atoms: _618  and  _619
REMARK  241  A    between atoms: _618  and  _621
REMARK  242  A    between atoms: _624  and  _626
REMARK  243  A    between atoms: _626  and  _627
REMARK  244  A    between atoms: _626  and  _629
REMARK  245  A    between atoms: _629  and  _630
REMARK  246  A    between atoms: _635  and  _637
REMARK  247  A    between atoms: _637  and  _638
REMARK  248  A    between atoms: _641  and  _643
REMARK  249  A    between atoms: _643  and  _644
REMARK  250  A    between atoms: _643  and  _646
REMARK  251  A    between atoms: _646  and  _647
REMARK  252  A    between atoms: _647  and  _648
REMARK  253  A    between atoms: _648  and  _649
REMARK  254  A    between atoms: _658  and  _660
REMARK  255  A    between atoms: _660  and  _661
REMARK  256  A    between atoms: _660  and  _663
REMARK  257  A    between atoms: _663  and  _664
REMARK  258  A    between atoms: _667  and  _669
REMARK  259  A    between atoms: _669  and  _670
REMARK  260  A    between atoms: _669  and  _672
REMARK  261  A    between atoms: _672  and  _673
REMARK  262  A    between atoms: _676  and  _678
REMARK  263  A    between atoms: _678  and  _679
REMARK  264  A    between atoms: _678  and  _681
REMARK  265  A    between atoms: _681  and  _682
REMARK  266  A    between atoms: _687  and  _689
REMARK  267  A    between atoms: _689  and  _690
REMARK  268  A    between atoms: _689  and  _692
REMARK  269  A    between atoms: _692  and  _693
REMARK                            x       y       z     vdW  Elec       q    Type
REMARK                         _______ _______ _______ _____ _____    ______ ____
ROOT
ATOM      1  CG  TRP A   1      41.389  44.406  23.644  0.00  0.00    -0.002 A 
ATOM      2  CD2 TRP A   1      40.956  43.220  24.305  0.00  0.00    +0.013 A 
ATOM      3  CE3 TRP A   1      40.330  42.971  25.529  0.00  0.00    +0.001 A 
ATOM      4  CZ3 TRP A   1      40.027  41.664  25.862  0.00  0.00    +0.000 A 
ATOM      5  CH2 TRP A   1      40.416  40.598  25.039  0.00  0.00    +0.001 A 
ATOM      6  CZ2 TRP A   1      41.054  40.789  23.873  0.00  0.00    +0.017 A 
ATOM      7  CE2 TRP A   1      41.344  42.123  23.511  0.00  0.00    +0.056 A 
ATOM      8  NE1 TRP A   1      41.967  42.608  22.423  0.00  0.00    -0.352 N 
ATOM      9  HE1 TRP A   1      42.346  42.038  21.640  0.00  0.00    +0.166 HD
ATOM     10  CD1 TRP A   1      42.022  43.989  22.513  0.00  0.00    +0.068 A 
ENDROOT
BRANCH   1  11
ATOM     11  CB  TRP A   1      41.169  45.844  24.070  0.00  0.00    +0.053 C 
BRANCH  11  12
ATOM     12  CA  TRP A   1      41.705  46.305  25.424  0.00  0.00    +0.137 C 
BRANCH  12  13
ATOM     13  N   TRP A   1      41.237  47.671  25.741  0.00  0.00    -0.239 NA
ATOM     14  H   TRP A   1      40.404  48.060  25.254  0.00  0.00    +0.142 HD
ENDBRANCH  12  13
BRANCH  12  15
ATOM     15  C   TRP A   1      43.206  46.065  25.422  0.00  0.00    +0.224 C 
ATOM     16  O   TRP A   1      43.747  45.227  26.138  0.00  0.00    -0.287 OA
ENDBRANCH  12  15
ENDBRANCH  11  12
ENDBRANCH   1  11
TORSDOF 4
REMARK  Name = ../refined-set-2016/1b7h/1b7h_pocket.pdb
REMARK  269 active torsions:
REMARK  status: ('A' for Active; 'I' for Inactive)
REMARK    1  A    between atoms: _1  and  _3
REMARK    2  A    between atoms: _3  and  _4
REMARK    3  A    between atoms: _6  and  _8
REMARK    4  A    between atoms: _8  and  _9
REMARK    5  A    between atoms: _8  and  _11
REMARK    6  A    between atoms: _11  and  _12
REMARK    7  A    between atoms: _14  and  _16
REMARK    8  A    between atoms: _16  and  _17
REMARK    9  A    between atoms: _16  and  _19
REMARK   10  A    between atoms: _19  and  _20
REMARK   11  A    between atoms: _20  and  _21
REMARK   12  A    between atoms: _26  and  _28
REMARK   13  A    between atoms: _28  and  _29
REMARK   14  A    between atoms: _28  and  _31
REMARK   15  A    between atoms: _31  and  _32
REMARK   16  A    between atoms: _35  and  _37
REMARK   17  A    between atoms: _37  and  _38
REMARK   18  A    between atoms: _37  and  _40
REMARK   19  A    between atoms: _40  and  _41
REMARK   20  A    between atoms: _41  and  _42
REMARK   21  A    between atoms: _45  and  _47
REMARK   22  A    between atoms: _47  and  _48
REMARK   23  A    between atoms: _50  and  _52
REMARK   24  A    between atoms: _52  and  _53
REMARK   25  A    between atoms: _52  and  _55
REMARK   26  A    between atoms: _59  and  _60
REMARK   27  A    between atoms: _65  and  _67
REMARK   28  A    between atoms: _67  and  _68
REMARK   29  A    between atoms: _67  and  _70
REMARK   30  A    between atoms: _70  and  _71
REMARK   31  A    between atoms: _71  and  _72
REMARK   32  A    between atoms: _75  and  _77
REMARK   33  A    between atoms: _77  and  _78
REMARK   34  A    between atoms: _77  and  _80
REMARK   35  A    between atoms: _80  and  _81
REMARK   36  A    between atoms: _83  and  _85
REMARK   37  A    between atoms: _85  and  _86
REMARK   38  A    between atoms: _85  and  _88
REMARK   39  A    between atoms: _88  and  _89
REMARK   40  A    between atoms: _94  and  _96
REMARK   41  A    between atoms: _96  and  _97
REMARK   42  A    between atoms: _96  and  _99
REMARK   43  A    between atoms: _99  and  _100
REMARK   44  A    between atoms: _100  and  _101
REMARK   45  A    between atoms: _101  and  _102
REMARK   46  A    between atoms: _112  and  _113
REMARK   47  A    between atoms: _118  and  _120
REMARK   48  A    between atoms: _120  and  _121
REMARK   49  A    between atoms: _120  and  _123
REMARK   50  A    between atoms: _123  and  _124
REMARK   51  A    between atoms: _129  and  _130
REMARK   52  A    between atoms: _132  and  _134
REMARK   53  A    between atoms: _134  and  _135
REMARK   54  A    between atoms: _134  and  _137
REMARK   55  A    between atoms: _137  and  _138
REMARK   56  A    between atoms: _143  and  _144
REMARK   57  A    between atoms: _146  and  _148
REMARK   58  A    between atoms: _148  and  _149
REMARK   59  A    between atoms: _148  and  _151
REMARK   60  A    between atoms: _154  and  _156
REMARK   61  A    between atoms: _156  and  _157
REMARK   62  A    between atoms: _156  and  _159
REMARK   63  A    between atoms: _159  and  _160
REMARK   64  A    between atoms: _166  and  _167
REMARK   65  A    between atoms: _172  and  _174
REMARK   66  A    between atoms: _174  and  _175
REMARK   67  A    between atoms: _174  and  _177
REMARK   68  A    between atoms: _177  and  _178
REMARK   69  A    between atoms: _180  and  _182
REMARK   70  A    between atoms: _182  and  _183
REMARK   71  A    between atoms: _182  and  _185
REMARK   72  A    between atoms: _185  and  _186
REMARK   73  A    between atoms: _191  and  _192
REMARK   74  A    between atoms: _194  and  _196
REMARK   75  A    between atoms: _196  and  _197
REMARK   76  A    between atoms: _196  and  _199
REMARK   77  A    between atoms: _199  and  _200
REMARK   78  A    between atoms: _205  and  _207
REMARK   79  A    between atoms: _207  and  _208
REMARK   80  A    between atoms: _207  and  _210
REMARK   81  A    between atoms: _210  and  _211
REMARK   82  A    between atoms: _216  and  _218
REMARK   83  A    between atoms: _218  and  _219
REMARK   84  A    between atoms: _218  and  _221
REMARK   85  A    between atoms: _221  and  _222
REMARK   86  A    between atoms: _222  and  _223
REMARK   87  A    between atoms: _225  and  _227
REMARK   88  A    between atoms: _227  and  _228
REMARK   89  A    between atoms: _227  and  _230
REMARK   90  A    between atoms: _230  and  _231
REMARK   91  A    between atoms: _236  and  _237
REMARK   92  A    between atoms: _239  and  _241
REMARK   93  A    between atoms: _241  and  _242
REMARK   94  A    between atoms: _241  and  _244
REMARK   95  A    between atoms: _244  and  _245
REMARK   96  A    between atoms: _248  and  _250
REMARK   97  A    between atoms: _250  and  _251
REMARK   98  A    between atoms: _250  and  _253
REMARK   99  A    between atoms: _253  and  _254
REMARK  100  A    between atoms: _254  and  _484
REMARK  101  A    between atoms: _255  and  _257
REMARK  102  A    between atoms: _257  and  _258
REMARK  103  A    between atoms: _257  and  _260
REMARK  104  A    between atoms: _260  and  _261
REMARK  105  A    between atoms: _264  and  _266
REMARK  106  A    between atoms: _266  and  _267
REMARK  107  A    between atoms: _266  and  _269
REMARK  108  A    between atoms: _269  and  _270
REMARK  109  A    between atoms: _275  and  _276
REMARK  110  A    between atoms: _278  and  _280
REMARK  111  A    between atoms: _280  and  _281
REMARK  112  A    between atoms: _280  and  _283
REMARK  113  A    between atoms: _283  and  _284
REMARK  114  A    between atoms: _289  and  _290
REMARK  115  A    between atoms: _292  and  _294
REMARK  116  A    between atoms: _294  and  _295
REMARK  117  A    between atoms: _294  and  _297
REMARK  118  A    between atoms: _297  and  _298
REMARK  119  A    between atoms: _298  and  _299
REMARK  120  A    between atoms: _302  and  _304
REMARK  121  A    between atoms: _304  and  _305
REMARK  122  A    between atoms: _304  and  _307
REMARK  123  A    between atoms: _307  and  _308
REMARK  124  A    between atoms: _308  and  _309
REMARK  125  A    between atoms: _309  and  _310
REMARK  126  A    between atoms: _310  and  _311
REMARK  127  A    between atoms: _315  and  _317
REMARK  128  A    between atoms: _317  and  _318
REMARK  129  A    between atoms: _317  and  _320
REMARK  130  A    between atoms: _320  and  _321
REMARK  131  A    between atoms: _326  and  _327
REMARK  132  A    between atoms: _329  and  _331
REMARK  133  A    between atoms: _331  and  _332
REMARK  134  A    between atoms: _331  and  _334
REMARK  135  A    between atoms: _334  and  _335
REMARK  136  A    between atoms: _340  and  _342
REMARK  137  A    between atoms: _342  and  _343
REMARK  138  A    between atoms: _342  and  _345
REMARK  139  A    between atoms: _345  and  _346
REMARK  140  A    between atoms: _349  and  _351
REMARK  141  A    between atoms: _351  and  _352
REMARK  142  A    between atoms: _351  and  _354
REMARK  143  A    between atoms: _354  and  _355
REMARK  144  A    between atoms: _360  and  _362
REMARK  145  A    between atoms: _362  and  _363
REMARK  146  A    between atoms: _362  and  _365
REMARK  147  A    between atoms: _365  and  _366
REMARK  148  A    between atoms: _376  and  _378
REMARK  149  A    between atoms: _378  and  _379
REMARK  150  A    between atoms: _378  and  _381
REMARK  151  A    between atoms: _381  and  _382
REMARK  152  A    between atoms: _388  and  _390
REMARK  153  A    between atoms: _390  and  _391
REMARK  154  A    between atoms: _390  and  _393
REMARK  155  A    between atoms: _393  and  _394
REMARK  156  A    between atoms: _397  and  _399
REMARK  157  A    between atoms: _399  and  _400
REMARK  158  A    between atoms: _399  and  _402
REMARK  159  A    between atoms: _402  and  _403
REMARK  160  A    between atoms: _406  and  _408
REMARK  161  A    between atoms: _408  and  _409
REMARK  162  A    between atoms: _408  and  _411
REMARK  163  A    between atoms: _411  and  _412
REMARK  164  A    between atoms: _412  and  _413
REMARK  165  A    between atoms: _413  and  _414
REMARK  166  A    between atoms: _423  and  _425
REMARK  167  A    between atoms: _425  and  _426
REMARK  168  A    between atoms: _425  and  _428
REMARK  169  A    between atoms: _428  and  _429
REMARK  170  A    between atoms: _434  and  _436
REMARK  171  A    between atoms: _436  and  _437
REMARK  172  A    between atoms: _436  and  _439
REMARK  173  A    between atoms: _439  and  _440
REMARK  174  A    between atoms: _440  and  _441
REMARK  175  A    between atoms: _441  and  _442
REMARK  176  A    between atoms: _451  and  _453
REMARK  177  A    between atoms: _453  and  _454
REMARK  178  A    between atoms: _457  and  _459
REMARK  179  A    between atoms: _459  and  _460
REMARK  180  A    between atoms: _462  and  _464
REMARK  181  A    between atoms: _464  and  _465
REMARK  182  A    between atoms: _464  and  _467
REMARK  183  A    between atoms: _467  and  _468
REMARK  184  A    between atoms: _478  and  _480
REMARK  185  A    between atoms: _480  and  _481
REMARK  186  A    between atoms: _480  and  _483
REMARK  187  A    between atoms: _483  and  _484
REMARK  188  A    between atoms: _485  and  _487
REMARK  189  A    between atoms: _487  and  _488
REMARK  190  A    between atoms: _491  and  _493
REMARK  191  A    between atoms: _493  and  _494
REMARK  192  A    between atoms: _493  and  _496
REMARK  193  A    between atoms: _496  and  _497
REMARK  194  A    between atoms: _500  and  _502
REMARK  195  A    between atoms: _502  and  _503
REMARK  196  A    between atoms: _502  and  _505
REMARK  197  A    between atoms: _505  and  _506
REMARK  198  A    between atoms: _511  and  _512
REMARK  199  A    between atoms: _514  and  _516
REMARK  200  A    between atoms: _516  and  _517
REMARK  201  A    between atoms: _516  and  _519
REMARK  202  A    between atoms: _519  and  _520
REMARK  203  A    between atoms: _522  and  _524
REMARK  204  A    between atoms: _524  and  _525
REMARK  205  A    between atoms: _524  and  _527
REMARK  206  A    between atoms: _527  and  _528
REMARK  207  A    between atoms: _534  and  _536
REMARK  208  A    between atoms: _536  and  _537
REMARK  209  A    between atoms: _536  and  _539
REMARK  210  A    between atoms: _539  and  _540
REMARK  211  A    between atoms: _543  and  _545
REMARK  212  A    between atoms: _545  and  _546
REMARK  213  A    between atoms: _545  and  _548
REMARK  214  A    between atoms: _548  and  _549
REMARK  215  A    between atoms: _551  and  _553
REMARK  216  A    between atoms: _553  and  _554
REMARK  217  A    between atoms: _553  and  _556
REMARK  218  A    between atoms: _556  and  _557
REMARK  219  A    between atoms: _562  and  _564
REMARK  220  A    between atoms: _564  and  _565
REMARK  221  A    between atoms: _564  and  _567
REMARK  222  A    between atoms: _567  and  _568
REMARK  223  A    between atoms: _573  and  _575
REMARK  224  A    between atoms: _575  and  _576
REMARK  225  A    between atoms: _575  and  _578
REMARK  226  A    between atoms: _578  and  _579
REMARK  227  A    between atoms: _582  and  _584
REMARK  228  A    between atoms: _584  and  _585
REMARK  229  A    between atoms: _588  and  _590
REMARK  230  A    between atoms: _590  and  _591
REMARK  231  A    between atoms: _590  and  _593
REMARK  232  A    between atoms: _593  and  _594
REMARK  233  A    between atoms: _599  and  _600
REMARK  234  A    between atoms: _602  and  _604
REMARK  235  A    between atoms: _604  and  _605
REMARK  236  A    between atoms: _604  and  _607
REMARK  237  A    between atoms: _607  and  _608
REMARK  238  A    between atoms: _613  and  _614
REMARK  239  A    between atoms: _616  and  _618
REMARK  240  A    between atoms: _618  and  _619
REMARK  241  A    between atoms: _618  and  _621
REMARK  242  A    between atoms: _624  and  _626
REMARK  243  A    between atoms: _626  and  _627
REMARK  244  A    between atoms: _626  and  _629
REMARK  245  A    between atoms: _629  and  _630
REMARK  246  A    between atoms: _635  and  _637
REMARK  247  A    between atoms: _637  and  _638
REMARK  248  A    between atoms: _641  and  _643
REMARK  249  A    between atoms: _643  and  _644
REMARK  250  A    between atoms: _643  and  _646
REMARK  251  A    between atoms: _646  and  _647
REMARK  252  A    between atoms: _647  and  _648
REMARK  253  A    between atoms: _648  and  _649
REMARK  254  A    between atoms: _658  and  _660
REMARK  255  A    between atoms: _660  and  _661
REMARK  256  A    between atoms: _660  and  _663
REMARK  257  A    between atoms: _663  and  _664
REMARK  258  A    between atoms: _667  and  _669
REMARK  259  A    between atoms: _669  and  _670
REMARK  260  A    between atoms: _669  and  _672
REMARK  261  A    between atoms: _672  and  _673
REMARK  262  A    between atoms: _676  and  _678
REMARK  263  A    between atoms: _678  and  _679
REMARK  264  A    between atoms: _678  and  _681
REMARK  265  A    between atoms: _681  and  _682
REMARK  266  A    between atoms: _687  and  _689
REMARK  267  A    between atoms: _689  and  _690
REMARK  268  A    between atoms: _689  and  _692
REMARK  269  A    between atoms: _692  and  _693
REMARK                            x       y       z     vdW  Elec       q    Type
REMARK                         _______ _______ _______ _____ _____    ______ ____
ROOT
ATOM      1  CA  LEU A   2      46.183  42.606  28.061  0.00  0.00    +0.149 C 
ENDROOT
BRANCH   1   4
ATOM      2  C   PHE A   1      45.180  44.252  29.504  0.00  0.00    +0.239 C 
ATOM      3  O   PHE A   1      45.541  43.643  30.486  0.00  0.00    -0.274 OA
ATOM      4  N   LEU A   2      45.472  43.849  28.261  0.00  0.00    -0.297 N 
ATOM      5  H   LEU A   2      45.189  44.427  27.444  0.00  0.00    +0.150 HD
BRANCH   2   6
ATOM      6  CA  PHE A   1      44.386  45.576  29.669  0.00  0.00    +0.149 C 
BRANCH   6   7
ATOM      7  N   PHE A   1      44.897  46.602  28.807  0.00  0.00    -0.238 NA
ATOM      8  H   PHE A   1      44.210  47.053  28.170  0.00  0.00    +0.142 HD
ENDBRANCH   6   7
BRANCH   6   9
ATOM      9  CB  PHE A   1      42.949  45.273  29.329  0.00  0.00    +0.053 C 
BRANCH   9  10
ATOM     10  CG  PHE A   1      42.186  44.126  29.951  0.00  0.00    -0.020 A 
ATOM     11  CD2 PHE A   1      41.888  44.139  31.289  0.00  0.00    -0.004 A 
ATOM     12  CE2 PHE A   1      41.105  43.115  31.861  0.00  0.00    -0.000 A 
ATOM     13  CZ  PHE A   1      40.677  42.102  31.061  0.00  0.00    -0.000 A 
ATOM     14  CE1 PHE A   1      40.960  42.063  29.702  0.00  0.00    -0.000 A 
ATOM     15  CD1 PHE A   1      41.734  43.102  29.135  0.00  0.00    -0.004 A 
ENDBRANCH   9  10
ENDBRANCH   6   9
ENDBRANCH   2   6
ENDBRANCH   1   4
BRANCH   1  16
ATOM     16  C   LEU A   2      47.647  42.733  28.523  0.00  0.00    +0.241 C 
ATOM     17  O   LEU A   2      48.178  41.799  29.098  0.00  0.00    -0.273 OA
ATOM     18  N   ASP A   3      48.226  43.907  28.276  0.00  0.00    -0.298 N 
ATOM     19  H   ASP A   3      47.715  44.636  27.738  0.00  0.00    +0.150 HD
BRANCH  18  20
ATOM     20  CA  ASP A   3      49.574  44.171  28.758  0.00  0.00    +0.148 C 
BRANCH  20  21
ATOM     21  C   ASP A   3      49.586  44.201  30.281  0.00  0.00    +0.227 C 
ATOM     22  O   ASP A   3      50.476  43.548  30.820  0.00  0.00    -0.286 OA
ENDBRANCH  20  21
BRANCH  20  23
ATOM     23  CB  ASP A   3      50.140  45.456  28.159  0.00  0.00    +0.142 C 
BRANCH  23  24
ATOM     24  CG  ASP A   3      51.446  45.810  28.853  0.00  0.00    +0.367 C 
ATOM     25  OD2 ASP A   3      51.441  46.486  29.891  0.00  0.00    -0.246 OA
ATOM     26  OD1 ASP A   3      52.503  45.347  28.409  0.00  0.00    -0.246 OA
ENDBRANCH  23  24
ENDBRANCH  20  23
ENDBRANCH  18  20
ENDBRANCH   1  16
BRANCH   1  27
ATOM     27  CB  LEU A   2      46.153  42.131  26.576  0.00  0.00    +0.029 C 
BRANCH  27  28
ATOM     28  CG  LEU A   2      44.756  41.913  25.976  0.00  0.00    +0.002 C 
ATOM     29  CD2 LEU A   2      43.812  41.108  26.845  0.00  0.00    +0.000 C 
ATOM     30  CD1 LEU A   2      44.808  41.318  24.576  0.00  0.00    +0.000 C 
ENDBRANCH  27  28
ENDBRANCH   1  27
TORSDOF 12
REMARK  Name = ../refined-set-2016/1b7h/1b7h_pocket.pdb
REMARK  269 active torsions:
REMARK  status: ('A' for Active; 'I' for Inactive)
REMARK    1  A    between atoms: _1  and  _3
REMARK    2  A    between atoms: _3  and  _4
REMARK    3  A    between atoms: _6  and  _8
REMARK    4  A    between atoms: _8  and  _9
REMARK    5  A    between atoms: _8  and  _11
REMARK    6  A    between atoms: _11  and  _12
REMARK    7  A    between atoms: _14  and  _16
REMARK    8  A    between atoms: _16  and  _17
REMARK    9  A    between atoms: _16  and  _19
REMARK   10  A    between atoms: _19  and  _20
REMARK   11  A    between atoms: _20  and  _21
REMARK   12  A    between atoms: _26  and  _28
REMARK   13  A    between atoms: _28  and  _29
REMARK   14  A    between atoms: _28  and  _31
REMARK   15  A    between atoms: _31  and  _32
REMARK   16  A    between atoms: _35  and  _37
REMARK   17  A    between atoms: _37  and  _38
REMARK   18  A    between atoms: _37  and  _40
REMARK   19  A    between atoms: _40  and  _41
REMARK   20  A    between atoms: _41  and  _42
REMARK   21  A    between atoms: _45  and  _47
REMARK   22  A    between atoms: _47  and  _48
REMARK   23  A    between atoms: _50  and  _52
REMARK   24  A    between atoms: _52  and  _53
REMARK   25  A    between atoms: _52  and  _55
REMARK   26  A    between atoms: _59  and  _60
REMARK   27  A    between atoms: _65  and  _67
REMARK   28  A    between atoms: _67  and  _68
REMARK   29  A    between atoms: _67  and  _70
REMARK   30  A    between atoms: _70  and  _71
REMARK   31  A    between atoms: _71  and  _72
REMARK   32  A    between atoms: _75  and  _77
REMARK   33  A    between atoms: _77  and  _78
REMARK   34  A    between atoms: _77  and  _80
REMARK   35  A    between atoms: _80  and  _81
REMARK   36  A    between atoms: _83  and  _85
REMARK   37  A    between atoms: _85  and  _86
REMARK   38  A    between atoms: _85  and  _88
REMARK   39  A    between atoms: _88  and  _89
REMARK   40  A    between atoms: _94  and  _96
REMARK   41  A    between atoms: _96  and  _97
REMARK   42  A    between atoms: _96  and  _99
REMARK   43  A    between atoms: _99  and  _100
REMARK   44  A    between atoms: _100  and  _101
REMARK   45  A    between atoms: _101  and  _102
REMARK   46  A    between atoms: _112  and  _113
REMARK   47  A    between atoms: _118  and  _120
REMARK   48  A    between atoms: _120  and  _121
REMARK   49  A    between atoms: _120  and  _123
REMARK   50  A    between atoms: _123  and  _124
REMARK   51  A    between atoms: _129  and  _130
REMARK   52  A    between atoms: _132  and  _134
REMARK   53  A    between atoms: _134  and  _135
REMARK   54  A    between atoms: _134  and  _137
REMARK   55  A    between atoms: _137  and  _138
REMARK   56  A    between atoms: _143  and  _144
REMARK   57  A    between atoms: _146  and  _148
REMARK   58  A    between atoms: _148  and  _149
REMARK   59  A    between atoms: _148  and  _151
REMARK   60  A    between atoms: _154  and  _156
REMARK   61  A    between atoms: _156  and  _157
REMARK   62  A    between atoms: _156  and  _159
REMARK   63  A    between atoms: _159  and  _160
REMARK   64  A    between atoms: _166  and  _167
REMARK   65  A    between atoms: _172  and  _174
REMARK   66  A    between atoms: _174  and  _175
REMARK   67  A    between atoms: _174  and  _177
REMARK   68  A    between atoms: _177  and  _178
REMARK   69  A    between atoms: _180  and  _182
REMARK   70  A    between atoms: _182  and  _183
REMARK   71  A    between atoms: _182  and  _185
REMARK   72  A    between atoms: _185  and  _186
REMARK   73  A    between atoms: _191  and  _192
REMARK   74  A    between atoms: _194  and  _196
REMARK   75  A    between atoms: _196  and  _197
REMARK   76  A    between atoms: _196  and  _199
REMARK   77  A    between atoms: _199  and  _200
REMARK   78  A    between atoms: _205  and  _207
REMARK   79  A    between atoms: _207  and  _208
REMARK   80  A    between atoms: _207  and  _210
REMARK   81  A    between atoms: _210  and  _211
REMARK   82  A    between atoms: _216  and  _218
REMARK   83  A    between atoms: _218  and  _219
REMARK   84  A    between atoms: _218  and  _221
REMARK   85  A    between atoms: _221  and  _222
REMARK   86  A    between atoms: _222  and  _223
REMARK   87  A    between atoms: _225  and  _227
REMARK   88  A    between atoms: _227  and  _228
REMARK   89  A    between atoms: _227  and  _230
REMARK   90  A    between atoms: _230  and  _231
REMARK   91  A    between atoms: _236  and  _237
REMARK   92  A    between atoms: _239  and  _241
REMARK   93  A    between atoms: _241  and  _242
REMARK   94  A    between atoms: _241  and  _244
REMARK   95  A    between atoms: _244  and  _245
REMARK   96  A    between atoms: _248  and  _250
REMARK   97  A    between atoms: _250  and  _251
REMARK   98  A    between atoms: _250  and  _253
REMARK   99  A    between atoms: _253  and  _254
REMARK  100  A    between atoms: _254  and  _484
REMARK  101  A    between atoms: _255  and  _257
REMARK  102  A    between atoms: _257  and  _258
REMARK  103  A    between atoms: _257  and  _260
REMARK  104  A    between atoms: _260  and  _261
REMARK  105  A    between atoms: _264  and  _266
REMARK  106  A    between atoms: _266  and  _267
REMARK  107  A    between atoms: _266  and  _269
REMARK  108  A    between atoms: _269  and  _270
REMARK  109  A    between atoms: _275  and  _276
REMARK  110  A    between atoms: _278  and  _280
REMARK  111  A    between atoms: _280  and  _281
REMARK  112  A    between atoms: _280  and  _283
REMARK  113  A    between atoms: _283  and  _284
REMARK  114  A    between atoms: _289  and  _290
REMARK  115  A    between atoms: _292  and  _294
REMARK  116  A    between atoms: _294  and  _295
REMARK  117  A    between atoms: _294  and  _297
REMARK  118  A    between atoms: _297  and  _298
REMARK  119  A    between atoms: _298  and  _299
REMARK  120  A    between atoms: _302  and  _304
REMARK  121  A    between atoms: _304  and  _305
REMARK  122  A    between atoms: _304  and  _307
REMARK  123  A    between atoms: _307  and  _308
REMARK  124  A    between atoms: _308  and  _309
REMARK  125  A    between atoms: _309  and  _310
REMARK  126  A    between atoms: _310  and  _311
REMARK  127  A    between atoms: _315  and  _317
REMARK  128  A    between atoms: _317  and  _318
REMARK  129  A    between atoms: _317  and  _320
REMARK  130  A    between atoms: _320  and  _321
REMARK  131  A    between atoms: _326  and  _327
REMARK  132  A    between atoms: _329  and  _331
REMARK  133  A    between atoms: _331  and  _332
REMARK  134  A    between atoms: _331  and  _334
REMARK  135  A    between atoms: _334  and  _335
REMARK  136  A    between atoms: _340  and  _342
REMARK  137  A    between atoms: _342  and  _343
REMARK  138  A    between atoms: _342  and  _345
REMARK  139  A    between atoms: _345  and  _346
REMARK  140  A    between atoms: _349  and  _351
REMARK  141  A    between atoms: _351  and  _352
REMARK  142  A    between atoms: _351  and  _354
REMARK  143  A    between atoms: _354  and  _355
REMARK  144  A    between atoms: _360  and  _362
REMARK  145  A    between atoms: _362  and  _363
REMARK  146  A    between atoms: _362  and  _365
REMARK  147  A    between atoms: _365  and  _366
REMARK  148  A    between atoms: _376  and  _378
REMARK  149  A    between atoms: _378  and  _379
REMARK  150  A    between atoms: _378  and  _381
REMARK  151  A    between atoms: _381  and  _382
REMARK  152  A    between atoms: _388  and  _390
REMARK  153  A    between atoms: _390  and  _391
REMARK  154  A    between atoms: _390  and  _393
REMARK  155  A    between atoms: _393  and  _394
REMARK  156  A    between atoms: _397  and  _399
REMARK  157  A    between atoms: _399  and  _400
REMARK  158  A    between atoms: _399  and  _402
REMARK  159  A    between atoms: _402  and  _403
REMARK  160  A    between atoms: _406  and  _408
REMARK  161  A    between atoms: _408  and  _409
REMARK  162  A    between atoms: _408  and  _411
REMARK  163  A    between atoms: _411  and  _412
REMARK  164  A    between atoms: _412  and  _413
REMARK  165  A    between atoms: _413  and  _414
REMARK  166  A    between atoms: _423  and  _425
REMARK  167  A    between atoms: _425  and  _426
REMARK  168  A    between atoms: _425  and  _428
REMARK  169  A    between atoms: _428  and  _429
REMARK  170  A    between atoms: _434  and  _436
REMARK  171  A    between atoms: _436  and  _437
REMARK  172  A    between atoms: _436  and  _439
REMARK  173  A    between atoms: _439  and  _440
REMARK  174  A    between atoms: _440  and  _441
REMARK  175  A    between atoms: _441  and  _442
REMARK  176  A    between atoms: _451  and  _453
REMARK  177  A    between atoms: _453  and  _454
REMARK  178  A    between atoms: _457  and  _459
REMARK  179  A    between atoms: _459  and  _460
REMARK  180  A    between atoms: _462  and  _464
REMARK  181  A    between atoms: _464  and  _465
REMARK  182  A    between atoms: _464  and  _467
REMARK  183  A    between atoms: _467  and  _468
REMARK  184  A    between atoms: _478  and  _480
REMARK  185  A    between atoms: _480  and  _481
REMARK  186  A    between atoms: _480  and  _483
REMARK  187  A    between atoms: _483  and  _484
REMARK  188  A    between atoms: _485  and  _487
REMARK  189  A    between atoms: _487  and  _488
REMARK  190  A    between atoms: _491  and  _493
REMARK  191  A    between atoms: _493  and  _494
REMARK  192  A    between atoms: _493  and  _496
REMARK  193  A    between atoms: _496  and  _497
REMARK  194  A    between atoms: _500  and  _502
REMARK  195  A    between atoms: _502  and  _503
REMARK  196  A    between atoms: _502  and  _505
REMARK  197  A    between atoms: _505  and  _506
REMARK  198  A    between atoms: _511  and  _512
REMARK  199  A    between atoms: _514  and  _516
REMARK  200  A    between atoms: _516  and  _517
REMARK  201  A    between atoms: _516  and  _519
REMARK  202  A    between atoms: _519  and  _520
REMARK  203  A    between atoms: _522  and  _524
REMARK  204  A    between atoms: _524  and  _525
REMARK  205  A    between atoms: _524  and  _527
REMARK  206  A    between atoms: _527  and  _528
REMARK  207  A    between atoms: _534  and  _536
REMARK  208  A    between atoms: _536  and  _537
REMARK  209  A    between atoms: _536  and  _539
REMARK  210  A    between atoms: _539  and  _540
REMARK  211  A    between atoms: _543  and  _545
REMARK  212  A    between atoms: _545  and  _546
REMARK  213  A    between atoms: _545  and  _548
REMARK  214  A    between atoms: _548  and  _549
REMARK  215  A    between atoms: _551  and  _553
REMARK  216  A    between atoms: _553  and  _554
REMARK  217  A    between atoms: _553  and  _556
REMARK  218  A    between atoms: _556  and  _557
REMARK  219  A    between atoms: _562  and  _564
REMARK  220  A    between atoms: _564  and  _565
REMARK  221  A    between atoms: _564  and  _567
REMARK  222  A    between atoms: _567  and  _568
REMARK  223  A    between atoms: _573  and  _575
REMARK  224  A    between atoms: _575  and  _576
REMARK  225  A    between atoms: _575  and  _578
REMARK  226  A    between atoms: _578  and  _579
REMARK  227  A    between atoms: _582  and  _584
REMARK  228  A    between atoms: _584  and  _585
REMARK  229  A    between atoms: _588  and  _590
REMARK  230  A    between atoms: _590  and  _591
REMARK  231  A    between atoms: _590  and  _593
REMARK  232  A    between atoms: _593  and  _594
REMARK  233  A    between atoms: _599  and  _600
REMARK  234  A    between atoms: _602  and  _604
REMARK  235  A    between atoms: _604  and  _605
REMARK  236  A    between atoms: _604  and  _607
REMARK  237  A    between atoms: _607  and  _608
REMARK  238  A    between atoms: _613  and  _614
REMARK  239  A    between atoms: _616  and  _618
REMARK  240  A    between atoms: _618  and  _619
REMARK  241  A    between atoms: _618  and  _621
REMARK  242  A    between atoms: _624  and  _626
REMARK  243  A    between atoms: _626  and  _627
REMARK  244  A    between atoms: _626  and  _629
REMARK  245  A    between atoms: _629  and  _630
REMARK  246  A    between atoms: _635  and  _637
REMARK  247  A    between atoms: _637  and  _638
REMARK  248  A    between atoms: _641  and  _643
REMARK  249  A    between atoms: _643  and  _644
REMARK  250  A    between atoms: _643  and  _646
REMARK  251  A    between atoms: _646  and  _647
REMARK  252  A    between atoms: _647  and  _648
REMARK  253  A    between atoms: _648  and  _649
REMARK  254  A    between atoms: _658  and  _660
REMARK  255  A    between atoms: _660  and  _661
REMARK  256  A    between atoms: _660  and  _663
REMARK  257  A    between atoms: _663  and  _664
REMARK  258  A    between atoms: _667  and  _669
REMARK  259  A    between atoms: _669  and  _670
REMARK  260  A    between atoms: _669  and  _672
REMARK  261  A    between atoms: _672  and  _673
REMARK  262  A    between atoms: _676  and  _678
REMARK  263  A    between atoms: _678  and  _679
REMARK  264  A    between atoms: _678  and  _681
REMARK  265  A    between atoms: _681  and  _682
REMARK  266  A    between atoms: _687  and  _689
REMARK  267  A    between atoms: _689  and  _690
REMARK  268  A    between atoms: _689  and  _692
REMARK  269  A    between atoms: _692  and  _693
REMARK                            x       y       z     vdW  Elec       q    Type
REMARK                         _______ _______ _______ _____ _____    ______ ____
ROOT
ATOM      1  CA  ARG A   1      47.685  41.049  32.845  0.00  0.00    +0.145 C 
ENDROOT
BRANCH   1   2
ATOM      2  C   ARG A   1      48.991  40.303  32.682  0.00  0.00    +0.238 C 
ATOM      3  O   ARG A   1      49.451  39.607  33.588  0.00  0.00    -0.274 OA
ATOM      4  N   HIS A   2      49.660  40.488  31.524  0.00  0.00    -0.298 N 
ATOM      5  H   HIS A   2      49.261  41.090  30.776  0.00  0.00    +0.150 HD
BRANCH   4   6
ATOM      6  CA  HIS A   2      50.952  39.832  31.334  0.00  0.00    +0.143 C 
BRANCH   6   7
ATOM      7  C   HIS A   2      52.032  40.341  32.270  0.00  0.00    +0.227 C 
ATOM      8  O   HIS A   2      52.850  39.593  32.815  0.00  0.00    -0.286 OA
ENDBRANCH   6   7
BRANCH   6   9
ATOM      9  CB  HIS A   2      51.465  40.151  29.885  0.00  0.00    +0.075 C 
BRANCH   9  10
ATOM     10  CG  HIS A   2      50.873  39.190  28.907  0.00  0.00    +0.082 A 
ATOM     11  ND1 HIS A   2      51.263  37.889  28.811  0.00  0.00    -0.227 NA
ATOM     12  CE1 HIS A   2      50.533  37.315  27.848  0.00  0.00    +0.199 A 
ATOM     13  NE2 HIS A   2      49.686  38.209  27.336  0.00  0.00    -0.221 NA
ATOM     14  CD2 HIS A   2      49.916  39.411  27.963  0.00  0.00    +0.115 A 
ENDBRANCH   9  10
ENDBRANCH   6   9
ENDBRANCH   4   6
ENDBRANCH   1   2
BRANCH   1  15
ATOM     15  N   ARG A   1      47.790  42.449  32.399  0.00  0.00    -0.238 NA
ATOM     16  H   ARG A   1      47.170  42.779  31.632  0.00  0.00    +0.142 HD
ENDBRANCH   1  15
BRANCH   1  17
ATOM     17  CB  ARG A   1      46.449  40.404  32.119  0.00  0.00    +0.030 C 
BRANCH  17  18
ATOM     18  CG  ARG A   1      45.139  40.998  32.684  0.00  0.00    +0.045 C 
BRANCH  18  19
ATOM     19  CD  ARG A   1      43.912  40.511  31.889  0.00  0.00    +0.174 C 
BRANCH  19  20
ATOM     20  NE  ARG A   1      43.856  39.017  31.904  0.00  0.00    -0.265 N 
ATOM     21  HE  ARG A   1      44.415  38.493  32.607  0.00  0.00    +0.259 HD
ATOM     22  CZ  ARG A   1      43.099  38.340  31.028  0.00  0.00    +0.342 C 
ATOM     23  NH2 ARG A   1      43.050  37.010  31.038  0.00  0.00    -0.292 N 
ATOM     24 HH21 ARG A   1      43.606  36.474  31.735  0.00  0.00    +0.255 HD
ATOM     25 HH22 ARG A   1      42.456  36.506  30.349  0.00  0.00    +0.255 HD
ATOM     26  NH1 ARG A   1      42.435  39.026  30.091  0.00  0.00    -0.292 N 
ATOM     27 HH11 ARG A   1      42.512  40.062  30.053  0.00  0.00    +0.255 HD
ATOM     28 HH12 ARG A   1      41.842  38.523  29.401  0.00  0.00    +0.255 HD
ENDBRANCH  19  20
ENDBRANCH  18  19
ENDBRANCH  17  18
ENDBRANCH   1  17
TORSDOF 10
REMARK  Name = ../refined-set-2016/1b7h/1b7h_pocket.pdb
REMARK  269 active torsions:
REMARK  status: ('A' for Active; 'I' for Inactive)
REMARK    1  A    between atoms: _1  and  _3
REMARK    2  A    between atoms: _3  and  _4
REMARK    3  A    between atoms: _6  and  _8
REMARK    4  A    between atoms: _8  and  _9
REMARK    5  A    between atoms: _8  and  _11
REMARK    6  A    between atoms: _11  and  _12
REMARK    7  A    between atoms: _14  and  _16
REMARK    8  A    between atoms: _16  and  _17
REMARK    9  A    between atoms: _16  and  _19
REMARK   10  A    between atoms: _19  and  _20
REMARK   11  A    between atoms: _20  and  _21
REMARK   12  A    between atoms: _26  and  _28
REMARK   13  A    between atoms: _28  and  _29
REMARK   14  A    between atoms: _28  and  _31
REMARK   15  A    between atoms: _31  and  _32
REMARK   16  A    between atoms: _35  and  _37
REMARK   17  A    between atoms: _37  and  _38
REMARK   18  A    between atoms: _37  and  _40
REMARK   19  A    between atoms: _40  and  _41
REMARK   20  A    between atoms: _41  and  _42
REMARK   21  A    between atoms: _45  and  _47
REMARK   22  A    between atoms: _47  and  _48
REMARK   23  A    between atoms: _50  and  _52
REMARK   24  A    between atoms: _52  and  _53
REMARK   25  A    between atoms: _52  and  _55
REMARK   26  A    between atoms: _59  and  _60
REMARK   27  A    between atoms: _65  and  _67
REMARK   28  A    between atoms: _67  and  _68
REMARK   29  A    between atoms: _67  and  _70
REMARK   30  A    between atoms: _70  and  _71
REMARK   31  A    between atoms: _71  and  _72
REMARK   32  A    between atoms: _75  and  _77
REMARK   33  A    between atoms: _77  and  _78
REMARK   34  A    between atoms: _77  and  _80
REMARK   35  A    between atoms: _80  and  _81
REMARK   36  A    between atoms: _83  and  _85
REMARK   37  A    between atoms: _85  and  _86
REMARK   38  A    between atoms: _85  and  _88
REMARK   39  A    between atoms: _88  and  _89
REMARK   40  A    between atoms: _94  and  _96
REMARK   41  A    between atoms: _96  and  _97
REMARK   42  A    between atoms: _96  and  _99
REMARK   43  A    between atoms: _99  and  _100
REMARK   44  A    between atoms: _100  and  _101
REMARK   45  A    between atoms: _101  and  _102
REMARK   46  A    between atoms: _112  and  _113
REMARK   47  A    between atoms: _118  and  _120
REMARK   48  A    between atoms: _120  and  _121
REMARK   49  A    between atoms: _120  and  _123
REMARK   50  A    between atoms: _123  and  _124
REMARK   51  A    between atoms: _129  and  _130
REMARK   52  A    between atoms: _132  and  _134
REMARK   53  A    between atoms: _134  and  _135
REMARK   54  A    between atoms: _134  and  _137
REMARK   55  A    between atoms: _137  and  _138
REMARK   56  A    between atoms: _143  and  _144
REMARK   57  A    between atoms: _146  and  _148
REMARK   58  A    between atoms: _148  and  _149
REMARK   59  A    between atoms: _148  and  _151
REMARK   60  A    between atoms: _154  and  _156
REMARK   61  A    between atoms: _156  and  _157
REMARK   62  A    between atoms: _156  and  _159
REMARK   63  A    between atoms: _159  and  _160
REMARK   64  A    between atoms: _166  and  _167
REMARK   65  A    between atoms: _172  and  _174
REMARK   66  A    between atoms: _174  and  _175
REMARK   67  A    between atoms: _174  and  _177
REMARK   68  A    between atoms: _177  and  _178
REMARK   69  A    between atoms: _180  and  _182
REMARK   70  A    between atoms: _182  and  _183
REMARK   71  A    between atoms: _182  and  _185
REMARK   72  A    between atoms: _185  and  _186
REMARK   73  A    between atoms: _191  and  _192
REMARK   74  A    between atoms: _194  and  _196
REMARK   75  A    between atoms: _196  and  _197
REMARK   76  A    between atoms: _196  and  _199
REMARK   77  A    between atoms: _199  and  _200
REMARK   78  A    between atoms: _205  and  _207
REMARK   79  A    between atoms: _207  and  _208
REMARK   80  A    between atoms: _207  and  _210
REMARK   81  A    between atoms: _210  and  _211
REMARK   82  A    between atoms: _216  and  _218
REMARK   83  A    between atoms: _218  and  _219
REMARK   84  A    between atoms: _218  and  _221
REMARK   85  A    between atoms: _221  and  _222
REMARK   86  A    between atoms: _222  and  _223
REMARK   87  A    between atoms: _225  and  _227
REMARK   88  A    between atoms: _227  and  _228
REMARK   89  A    between atoms: _227  and  _230
REMARK   90  A    between atoms: _230  and  _231
REMARK   91  A    between atoms: _236  and  _237
REMARK   92  A    between atoms: _239  and  _241
REMARK   93  A    between atoms: _241  and  _242
REMARK   94  A    between atoms: _241  and  _244
REMARK   95  A    between atoms: _244  and  _245
REMARK   96  A    between atoms: _248  and  _250
REMARK   97  A    between atoms: _250  and  _251
REMARK   98  A    between atoms: _250  and  _253
REMARK   99  A    between atoms: _253  and  _254
REMARK  100  A    between atoms: _254  and  _484
REMARK  101  A    between atoms: _255  and  _257
REMARK  102  A    between atoms: _257  and  _258
REMARK  103  A    between atoms: _257  and  _260
REMARK  104  A    between atoms: _260  and  _261
REMARK  105  A    between atoms: _264  and  _266
REMARK  106  A    between atoms: _266  and  _267
REMARK  107  A    between atoms: _266  and  _269
REMARK  108  A    between atoms: _269  and  _270
REMARK  109  A    between atoms: _275  and  _276
REMARK  110  A    between atoms: _278  and  _280
REMARK  111  A    between atoms: _280  and  _281
REMARK  112  A    between atoms: _280  and  _283
REMARK  113  A    between atoms: _283  and  _284
REMARK  114  A    between atoms: _289  and  _290
REMARK  115  A    between atoms: _292  and  _294
REMARK  116  A    between atoms: _294  and  _295
REMARK  117  A    between atoms: _294  and  _297
REMARK  118  A    between atoms: _297  and  _298
REMARK  119  A    between atoms: _298  and  _299
REMARK  120  A    between atoms: _302  and  _304
REMARK  121  A    between atoms: _304  and  _305
REMARK  122  A    between atoms: _304  and  _307
REMARK  123  A    between atoms: _307  and  _308
REMARK  124  A    between atoms: _308  and  _309
REMARK  125  A    between atoms: _309  and  _310
REMARK  126  A    between atoms: _310  and  _311
REMARK  127  A    between atoms: _315  and  _317
REMARK  128  A    between atoms: _317  and  _318
REMARK  129  A    between atoms: _317  and  _320
REMARK  130  A    between atoms: _320  and  _321
REMARK  131  A    between atoms: _326  and  _327
REMARK  132  A    between atoms: _329  and  _331
REMARK  133  A    between atoms: _331  and  _332
REMARK  134  A    between atoms: _331  and  _334
REMARK  135  A    between atoms: _334  and  _335
REMARK  136  A    between atoms: _340  and  _342
REMARK  137  A    between atoms: _342  and  _343
REMARK  138  A    between atoms: _342  and  _345
REMARK  139  A    between atoms: _345  and  _346
REMARK  140  A    between atoms: _349  and  _351
REMARK  141  A    between atoms: _351  and  _352
REMARK  142  A    between atoms: _351  and  _354
REMARK  143  A    between atoms: _354  and  _355
REMARK  144  A    between atoms: _360  and  _362
REMARK  145  A    between atoms: _362  and  _363
REMARK  146  A    between atoms: _362  and  _365
REMARK  147  A    between atoms: _365  and  _366
REMARK  148  A    between atoms: _376  and  _378
REMARK  149  A    between atoms: _378  and  _379
REMARK  150  A    between atoms: _378  and  _381
REMARK  151  A    between atoms: _381  and  _382
REMARK  152  A    between atoms: _388  and  _390
REMARK  153  A    between atoms: _390  and  _391
REMARK  154  A    between atoms: _390  and  _393
REMARK  155  A    between atoms: _393  and  _394
REMARK  156  A    between atoms: _397  and  _399
REMARK  157  A    between atoms: _399  and  _400
REMARK  158  A    between atoms: _399  and  _402
REMARK  159  A    between atoms: _402  and  _403
REMARK  160  A    between atoms: _406  and  _408
REMARK  161  A    between atoms: _408  and  _409
REMARK  162  A    between atoms: _408  and  _411
REMARK  163  A    between atoms: _411  and  _412
REMARK  164  A    between atoms: _412  and  _413
REMARK  165  A    between atoms: _413  and  _414
REMARK  166  A    between atoms: _423  and  _425
REMARK  167  A    between atoms: _425  and  _426
REMARK  168  A    between atoms: _425  and  _428
REMARK  169  A    between atoms: _428  and  _429
REMARK  170  A    between atoms: _434  and  _436
REMARK  171  A    between atoms: _436  and  _437
REMARK  172  A    between atoms: _436  and  _439
REMARK  173  A    between atoms: _439  and  _440
REMARK  174  A    between atoms: _440  and  _441
REMARK  175  A    between atoms: _441  and  _442
REMARK  176  A    between atoms: _451  and  _453
REMARK  177  A    between atoms: _453  and  _454
REMARK  178  A    between atoms: _457  and  _459
REMARK  179  A    between atoms: _459  and  _460
REMARK  180  A    between atoms: _462  and  _464
REMARK  181  A    between atoms: _464  and  _465
REMARK  182  A    between atoms: _464  and  _467
REMARK  183  A    between atoms: _467  and  _468
REMARK  184  A    between atoms: _478  and  _480
REMARK  185  A    between atoms: _480  and  _481
REMARK  186  A    between atoms: _480  and  _483
REMARK  187  A    between atoms: _483  and  _484
REMARK  188  A    between atoms: _485  and  _487
REMARK  189  A    between atoms: _487  and  _488
REMARK  190  A    between atoms: _491  and  _493
REMARK  191  A    between atoms: _493  and  _494
REMARK  192  A    between atoms: _493  and  _496
REMARK  193  A    between atoms: _496  and  _497
REMARK  194  A    between atoms: _500  and  _502
REMARK  195  A    between atoms: _502  and  _503
REMARK  196  A    between atoms: _502  and  _505
REMARK  197  A    between atoms: _505  and  _506
REMARK  198  A    between atoms: _511  and  _512
REMARK  199  A    between atoms: _514  and  _516
REMARK  200  A    between atoms: _516  and  _517
REMARK  201  A    between atoms: _516  and  _519
REMARK  202  A    between atoms: _519  and  _520
REMARK  203  A    between atoms: _522  and  _524
REMARK  204  A    between atoms: _524  and  _525
REMARK  205  A    between atoms: _524  and  _527
REMARK  206  A    between atoms: _527  and  _528
REMARK  207  A    between atoms: _534  and  _536
REMARK  208  A    between atoms: _536  and  _537
REMARK  209  A    between atoms: _536  and  _539
REMARK  210  A    between atoms: _539  and  _540
REMARK  211  A    between atoms: _543  and  _545
REMARK  212  A    between atoms: _545  and  _546
REMARK  213  A    between atoms: _545  and  _548
REMARK  214  A    between atoms: _548  and  _549
REMARK  215  A    between atoms: _551  and  _553
REMARK  216  A    between atoms: _553  and  _554
REMARK  217  A    between atoms: _553  and  _556
REMARK  218  A    between atoms: _556  and  _557
REMARK  219  A    between atoms: _562  and  _564
REMARK  220  A    between atoms: _564  and  _565
REMARK  221  A    between atoms: _564  and  _567
REMARK  222  A    between atoms: _567  and  _568
REMARK  223  A    between atoms: _573  and  _575
REMARK  224  A    between atoms: _575  and  _576
REMARK  225  A    between atoms: _575  and  _578
REMARK  226  A    between atoms: _578  and  _579
REMARK  227  A    between atoms: _582  and  _584
REMARK  228  A    between atoms: _584  and  _585
REMARK  229  A    between atoms: _588  and  _590
REMARK  230  A    between atoms: _590  and  _591
REMARK  231  A    between atoms: _590  and  _593
REMARK  232  A    between atoms: _593  and  _594
REMARK  233  A    between atoms: _599  and  _600
REMARK  234  A    between atoms: _602  and  _604
REMARK  235  A    between atoms: _604  and  _605
REMARK  236  A    between atoms: _604  and  _607
REMARK  237  A    between atoms: _607  and  _608
REMARK  238  A    between atoms: _613  and  _614
REMARK  239  A    between atoms: _616  and  _618
REMARK  240  A    between atoms: _618  and  _619
REMARK  241  A    between atoms: _618  and  _621
REMARK  242  A    between atoms: _624  and  _626
REMARK  243  A    between atoms: _626  and  _627
REMARK  244  A    between atoms: _626  and  _629
REMARK  245  A    between atoms: _629  and  _630
REMARK  246  A    between atoms: _635  and  _637
REMARK  247  A    between atoms: _637  and  _638
REMARK  248  A    between atoms: _641  and  _643
REMARK  249  A    between atoms: _643  and  _644
REMARK  250  A    between atoms: _643  and  _646
REMARK  251  A    between atoms: _646  and  _647
REMARK  252  A    between atoms: _647  and  _648
REMARK  253  A    between atoms: _648  and  _649
REMARK  254  A    between atoms: _658  and  _660
REMARK  255  A    between atoms: _660  and  _661
REMARK  256  A    between atoms: _660  and  _663
REMARK  257  A    between atoms: _663  and  _664
REMARK  258  A    between atoms: _667  and  _669
REMARK  259  A    between atoms: _669  and  _670
REMARK  260  A    between atoms: _669  and  _672
REMARK  261  A    between atoms: _672  and  _673
REMARK  262  A    between atoms: _676  and  _678
REMARK  263  A    between atoms: _678  and  _679
REMARK  264  A    between atoms: _678  and  _681
REMARK  265  A    between atoms: _681  and  _682
REMARK  266  A    between atoms: _687  and  _689
REMARK  267  A    between atoms: _689  and  _690
REMARK  268  A    between atoms: _689  and  _692
REMARK  269  A    between atoms: _692  and  _693
REMARK                            x       y       z     vdW  Elec       q    Type
REMARK                         _______ _______ _______ _____ _____    ______ ____
ROOT
ATOM      1  C   SER A   1      43.735  25.227  25.656  0.00  0.00    +0.241 C 
ATOM      2  N   PHE A   2      43.083  24.793  26.705  0.00  0.00    -0.298 N 
ATOM      3  H   PHE A   2      42.700  23.827  26.668  0.00  0.00    +0.150 HD
ATOM      4  O   SER A   1      44.125  26.424  25.553  0.00  0.00    -0.274 OA
ENDROOT
BRANCH   1   5
ATOM      5  CA  SER A   1      43.983  24.255  24.506  0.00  0.00    +0.174 C 
BRANCH   5   6
ATOM      6  N   SER A   1      44.125  22.907  24.988  0.00  0.00    -0.236 NA
ATOM      7  H   SER A   1      43.441  22.187  24.679  0.00  0.00    +0.142 HD
ENDBRANCH   5   6
BRANCH   5   8
ATOM      8  CB  SER A   1      42.868  24.437  23.437  0.00  0.00    +0.163 C 
BRANCH   8   9
ATOM      9  OG  SER A   1      43.115  25.622  22.689  0.00  0.00    -0.380 OA
ATOM     10  H   SER A   1      43.994  25.550  22.240  0.00  0.00    +0.211 HD
ENDBRANCH   8   9
ENDBRANCH   5   8
ENDBRANCH   1   5
BRANCH   2  11
ATOM     11  CA  PHE A   2      42.852  25.565  27.926  0.00  0.00    +0.141 C 
BRANCH  11  12
ATOM     12  C   PHE A   2      43.969  25.223  28.927  0.00  0.00    +0.227 C 
ATOM     13  O   PHE A   2      44.658  26.082  29.470  0.00  0.00    -0.286 OA
ENDBRANCH  11  12
BRANCH  11  14
ATOM     14  CB  PHE A   2      41.455  25.194  28.570  0.00  0.00    +0.054 C 
BRANCH  14  15
ATOM     15  CG  PHE A   2      40.277  25.992  28.039  0.00  0.00    -0.020 A 
ATOM     16  CD2 PHE A   2      39.748  27.012  28.762  0.00  0.00    -0.004 A 
ATOM     17  CE2 PHE A   2      38.684  27.801  28.345  0.00  0.00    -0.000 A 
ATOM     18  CZ  PHE A   2      38.185  27.607  27.065  0.00  0.00    -0.000 A 
ATOM     19  CE1 PHE A   2      38.702  26.588  26.261  0.00  0.00    -0.000 A 
ATOM     20  CD1 PHE A   2      39.736  25.786  26.788  0.00  0.00    -0.004 A 
ENDBRANCH  14  15
ENDBRANCH  11  14
ENDBRANCH   2  11
TORSDOF 8
REMARK  Name = ../refined-set-2016/1b7h/1b7h_pocket.pdb
REMARK  269 active torsions:
REMARK  status: ('A' for Active; 'I' for Inactive)
REMARK    1  A    between atoms: _1  and  _3
REMARK    2  A    between atoms: _3  and  _4
REMARK    3  A    between atoms: _6  and  _8
REMARK    4  A    between atoms: _8  and  _9
REMARK    5  A    between atoms: _8  and  _11
REMARK    6  A    between atoms: _11  and  _12
REMARK    7  A    between atoms: _14  and  _16
REMARK    8  A    between atoms: _16  and  _17
REMARK    9  A    between atoms: _16  and  _19
REMARK   10  A    between atoms: _19  and  _20
REMARK   11  A    between atoms: _20  and  _21
REMARK   12  A    between atoms: _26  and  _28
REMARK   13  A    between atoms: _28  and  _29
REMARK   14  A    between atoms: _28  and  _31
REMARK   15  A    between atoms: _31  and  _32
REMARK   16  A    between atoms: _35  and  _37
REMARK   17  A    between atoms: _37  and  _38
REMARK   18  A    between atoms: _37  and  _40
REMARK   19  A    between atoms: _40  and  _41
REMARK   20  A    between atoms: _41  and  _42
REMARK   21  A    between atoms: _45  and  _47
REMARK   22  A    between atoms: _47  and  _48
REMARK   23  A    between atoms: _50  and  _52
REMARK   24  A    between atoms: _52  and  _53
REMARK   25  A    between atoms: _52  and  _55
REMARK   26  A    between atoms: _59  and  _60
REMARK   27  A    between atoms: _65  and  _67
REMARK   28  A    between atoms: _67  and  _68
REMARK   29  A    between atoms: _67  and  _70
REMARK   30  A    between atoms: _70  and  _71
REMARK   31  A    between atoms: _71  and  _72
REMARK   32  A    between atoms: _75  and  _77
REMARK   33  A    between atoms: _77  and  _78
REMARK   34  A    between atoms: _77  and  _80
REMARK   35  A    between atoms: _80  and  _81
REMARK   36  A    between atoms: _83  and  _85
REMARK   37  A    between atoms: _85  and  _86
REMARK   38  A    between atoms: _85  and  _88
REMARK   39  A    between atoms: _88  and  _89
REMARK   40  A    between atoms: _94  and  _96
REMARK   41  A    between atoms: _96  and  _97
REMARK   42  A    between atoms: _96  and  _99
REMARK   43  A    between atoms: _99  and  _100
REMARK   44  A    between atoms: _100  and  _101
REMARK   45  A    between atoms: _101  and  _102
REMARK   46  A    between atoms: _112  and  _113
REMARK   47  A    between atoms: _118  and  _120
REMARK   48  A    between atoms: _120  and  _121
REMARK   49  A    between atoms: _120  and  _123
REMARK   50  A    between atoms: _123  and  _124
REMARK   51  A    between atoms: _129  and  _130
REMARK   52  A    between atoms: _132  and  _134
REMARK   53  A    between atoms: _134  and  _135
REMARK   54  A    between atoms: _134  and  _137
REMARK   55  A    between atoms: _137  and  _138
REMARK   56  A    between atoms: _143  and  _144
REMARK   57  A    between atoms: _146  and  _148
REMARK   58  A    between atoms: _148  and  _149
REMARK   59  A    between atoms: _148  and  _151
REMARK   60  A    between atoms: _154  and  _156
REMARK   61  A    between atoms: _156  and  _157
REMARK   62  A    between atoms: _156  and  _159
REMARK   63  A    between atoms: _159  and  _160
REMARK   64  A    between atoms: _166  and  _167
REMARK   65  A    between atoms: _172  and  _174
REMARK   66  A    between atoms: _174  and  _175
REMARK   67  A    between atoms: _174  and  _177
REMARK   68  A    between atoms: _177  and  _178
REMARK   69  A    between atoms: _180  and  _182
REMARK   70  A    between atoms: _182  and  _183
REMARK   71  A    between atoms: _182  and  _185
REMARK   72  A    between atoms: _185  and  _186
REMARK   73  A    between atoms: _191  and  _192
REMARK   74  A    between atoms: _194  and  _196
REMARK   75  A    between atoms: _196  and  _197
REMARK   76  A    between atoms: _196  and  _199
REMARK   77  A    between atoms: _199  and  _200
REMARK   78  A    between atoms: _205  and  _207
REMARK   79  A    between atoms: _207  and  _208
REMARK   80  A    between atoms: _207  and  _210
REMARK   81  A    between atoms: _210  and  _211
REMARK   82  A    between atoms: _216  and  _218
REMARK   83  A    between atoms: _218  and  _219
REMARK   84  A    between atoms: _218  and  _221
REMARK   85  A    between atoms: _221  and  _222
REMARK   86  A    between atoms: _222  and  _223
REMARK   87  A    between atoms: _225  and  _227
REMARK   88  A    between atoms: _227  and  _228
REMARK   89  A    between atoms: _227  and  _230
REMARK   90  A    between atoms: _230  and  _231
REMARK   91  A    between atoms: _236  and  _237
REMARK   92  A    between atoms: _239  and  _241
REMARK   93  A    between atoms: _241  and  _242
REMARK   94  A    between atoms: _241  and  _244
REMARK   95  A    between atoms: _244  and  _245
REMARK   96  A    between atoms: _248  and  _250
REMARK   97  A    between atoms: _250  and  _251
REMARK   98  A    between atoms: _250  and  _253
REMARK   99  A    between atoms: _253  and  _254
REMARK  100  A    between atoms: _254  and  _484
REMARK  101  A    between atoms: _255  and  _257
REMARK  102  A    between atoms: _257  and  _258
REMARK  103  A    between atoms: _257  and  _260
REMARK  104  A    between atoms: _260  and  _261
REMARK  105  A    between atoms: _264  and  _266
REMARK  106  A    between atoms: _266  and  _267
REMARK  107  A    between atoms: _266  and  _269
REMARK  108  A    between atoms: _269  and  _270
REMARK  109  A    between atoms: _275  and  _276
REMARK  110  A    between atoms: _278  and  _280
REMARK  111  A    between atoms: _280  and  _281
REMARK  112  A    between atoms: _280  and  _283
REMARK  113  A    between atoms: _283  and  _284
REMARK  114  A    between atoms: _289  and  _290
REMARK  115  A    between atoms: _292  and  _294
REMARK  116  A    between atoms: _294  and  _295
REMARK  117  A    between atoms: _294  and  _297
REMARK  118  A    between atoms: _297  and  _298
REMARK  119  A    between atoms: _298  and  _299
REMARK  120  A    between atoms: _302  and  _304
REMARK  121  A    between atoms: _304  and  _305
REMARK  122  A    between atoms: _304  and  _307
REMARK  123  A    between atoms: _307  and  _308
REMARK  124  A    between atoms: _308  and  _309
REMARK  125  A    between atoms: _309  and  _310
REMARK  126  A    between atoms: _310  and  _311
REMARK  127  A    between atoms: _315  and  _317
REMARK  128  A    between atoms: _317  and  _318
REMARK  129  A    between atoms: _317  and  _320
REMARK  130  A    between atoms: _320  and  _321
REMARK  131  A    between atoms: _326  and  _327
REMARK  132  A    between atoms: _329  and  _331
REMARK  133  A    between atoms: _331  and  _332
REMARK  134  A    between atoms: _331  and  _334
REMARK  135  A    between atoms: _334  and  _335
REMARK  136  A    between atoms: _340  and  _342
REMARK  137  A    between atoms: _342  and  _343
REMARK  138  A    between atoms: _342  and  _345
REMARK  139  A    between atoms: _345  and  _346
REMARK  140  A    between atoms: _349  and  _351
REMARK  141  A    between atoms: _351  and  _352
REMARK  142  A    between atoms: _351  and  _354
REMARK  143  A    between atoms: _354  and  _355
REMARK  144  A    between atoms: _360  and  _362
REMARK  145  A    between atoms: _362  and  _363
REMARK  146  A    between atoms: _362  and  _365
REMARK  147  A    between atoms: _365  and  _366
REMARK  148  A    between atoms: _376  and  _378
REMARK  149  A    between atoms: _378  and  _379
REMARK  150  A    between atoms: _378  and  _381
REMARK  151  A    between atoms: _381  and  _382
REMARK  152  A    between atoms: _388  and  _390
REMARK  153  A    between atoms: _390  and  _391
REMARK  154  A    between atoms: _390  and  _393
REMARK  155  A    between atoms: _393  and  _394
REMARK  156  A    between atoms: _397  and  _399
REMARK  157  A    between atoms: _399  and  _400
REMARK  158  A    between atoms: _399  and  _402
REMARK  159  A    between atoms: _402  and  _403
REMARK  160  A    between atoms: _406  and  _408
REMARK  161  A    between atoms: _408  and  _409
REMARK  162  A    between atoms: _408  and  _411
REMARK  163  A    between atoms: _411  and  _412
REMARK  164  A    between atoms: _412  and  _413
REMARK  165  A    between atoms: _413  and  _414
REMARK  166  A    between atoms: _423  and  _425
REMARK  167  A    between atoms: _425  and  _426
REMARK  168  A    between atoms: _425  and  _428
REMARK  169  A    between atoms: _428  and  _429
REMARK  170  A    between atoms: _434  and  _436
REMARK  171  A    between atoms: _436  and  _437
REMARK  172  A    between atoms: _436  and  _439
REMARK  173  A    between atoms: _439  and  _440
REMARK  174  A    between atoms: _440  and  _441
REMARK  175  A    between atoms: _441  and  _442
REMARK  176  A    between atoms: _451  and  _453
REMARK  177  A    between atoms: _453  and  _454
REMARK  178  A    between atoms: _457  and  _459
REMARK  179  A    between atoms: _459  and  _460
REMARK  180  A    between atoms: _462  and  _464
REMARK  181  A    between atoms: _464  and  _465
REMARK  182  A    between atoms: _464  and  _467
REMARK  183  A    between atoms: _467  and  _468
REMARK  184  A    between atoms: _478  and  _480
REMARK  185  A    between atoms: _480  and  _481
REMARK  186  A    between atoms: _480  and  _483
REMARK  187  A    between atoms: _483  and  _484
REMARK  188  A    between atoms: _485  and  _487
REMARK  189  A    between atoms: _487  and  _488
REMARK  190  A    between atoms: _491  and  _493
REMARK  191  A    between atoms: _493  and  _494
REMARK  192  A    between atoms: _493  and  _496
REMARK  193  A    between atoms: _496  and  _497
REMARK  194  A    between atoms: _500  and  _502
REMARK  195  A    between atoms: _502  and  _503
REMARK  196  A    between atoms: _502  and  _505
REMARK  197  A    between atoms: _505  and  _506
REMARK  198  A    between atoms: _511  and  _512
REMARK  199  A    between atoms: _514  and  _516
REMARK  200  A    between atoms: _516  and  _517
REMARK  201  A    between atoms: _516  and  _519
REMARK  202  A    between atoms: _519  and  _520
REMARK  203  A    between atoms: _522  and  _524
REMARK  204  A    between atoms: _524  and  _525
REMARK  205  A    between atoms: _524  and  _527
REMARK  206  A    between atoms: _527  and  _528
REMARK  207  A    between atoms: _534  and  _536
REMARK  208  A    between atoms: _536  and  _537
REMARK  209  A    between atoms: _536  and  _539
REMARK  210  A    between atoms: _539  and  _540
REMARK  211  A    between atoms: _543  and  _545
REMARK  212  A    between atoms: _545  and  _546
REMARK  213  A    between atoms: _545  and  _548
REMARK  214  A    between atoms: _548  and  _549
REMARK  215  A    between atoms: _551  and  _553
REMARK  216  A    between atoms: _553  and  _554
REMARK  217  A    between atoms: _553  and  _556
REMARK  218  A    between atoms: _556  and  _557
REMARK  219  A    between atoms: _562  and  _564
REMARK  220  A    between atoms: _564  and  _565
REMARK  221  A    between atoms: _564  and  _567
REMARK  222  A    between atoms: _567  and  _568
REMARK  223  A    between atoms: _573  and  _575
REMARK  224  A    between atoms: _575  and  _576
REMARK  225  A    between atoms: _575  and  _578
REMARK  226  A    between atoms: _578  and  _579
REMARK  227  A    between atoms: _582  and  _584
REMARK  228  A    between atoms: _584  and  _585
REMARK  229  A    between atoms: _588  and  _590
REMARK  230  A    between atoms: _590  and  _591
REMARK  231  A    between atoms: _590  and  _593
REMARK  232  A    between atoms: _593  and  _594
REMARK  233  A    between atoms: _599  and  _600
REMARK  234  A    between atoms: _602  and  _604
REMARK  235  A    between atoms: _604  and  _605
REMARK  236  A    between atoms: _604  and  _607
REMARK  237  A    between atoms: _607  and  _608
REMARK  238  A    between atoms: _613  and  _614
REMARK  239  A    between atoms: _616  and  _618
REMARK  240  A    between atoms: _618  and  _619
REMARK  241  A    between atoms: _618  and  _621
REMARK  242  A    between atoms: _624  and  _626
REMARK  243  A    between atoms: _626  and  _627
REMARK  244  A    between atoms: _626  and  _629
REMARK  245  A    between atoms: _629  and  _630
REMARK  246  A    between atoms: _635  and  _637
REMARK  247  A    between atoms: _637  and  _638
REMARK  248  A    between atoms: _641  and  _643
REMARK  249  A    between atoms: _643  and  _644
REMARK  250  A    between atoms: _643  and  _646
REMARK  251  A    between atoms: _646  and  _647
REMARK  252  A    between atoms: _647  and  _648
REMARK  253  A    between atoms: _648  and  _649
REMARK  254  A    between atoms: _658  and  _660
REMARK  255  A    between atoms: _660  and  _661
REMARK  256  A    between atoms: _660  and  _663
REMARK  257  A    between atoms: _663  and  _664
REMARK  258  A    between atoms: _667  and  _669
REMARK  259  A    between atoms: _669  and  _670
REMARK  260  A    between atoms: _669  and  _672
REMARK  261  A    between atoms: _672  and  _673
REMARK  262  A    between atoms: _676  and  _678
REMARK  263  A    between atoms: _678  and  _679
REMARK  264  A    between atoms: _678  and  _681
REMARK  265  A    between atoms: _681  and  _682
REMARK  266  A    between atoms: _687  and  _689
REMARK  267  A    between atoms: _689  and  _690
REMARK  268  A    between atoms: _689  and  _692
REMARK  269  A    between atoms: _692  and  _693
REMARK                            x       y       z     vdW  Elec       q    Type
REMARK                         _______ _______ _______ _____ _____    ______ ____
ROOT
ATOM      1  CA  THR A   1      47.796  28.149  29.429  0.00  0.00    +0.160 C 
ENDROOT
BRANCH   1   2
ATOM      2  N   THR A   1      47.622  26.725  29.078  0.00  0.00    -0.237 NA
ATOM      3  H   THR A   1      46.659  26.353  28.949  0.00  0.00    +0.142 HD
ENDBRANCH   1   2
BRANCH   1   4
ATOM      4  C   THR A   1      48.108  28.333  30.902  0.00  0.00    +0.227 C 
ATOM      5  O   THR A   1      48.526  29.436  31.328  0.00  0.00    -0.287 OA
ENDBRANCH   1   4
BRANCH   1   6
ATOM      6  CB  THR A   1      46.578  29.022  29.047  0.00  0.00    +0.134 C 
ATOM      7  CG2 THR A   1      46.254  28.973  27.558  0.00  0.00    +0.034 C 
BRANCH   6   8
ATOM      8  OG1 THR A   1      45.401  28.580  29.807  0.00  0.00    -0.383 OA
ATOM      9  HG1 THR A   1      44.622  29.140  29.562  0.00  0.00    +0.210 HD
ENDBRANCH   6   8
ENDBRANCH   1   6
TORSDOF 4
REMARK  Name = ../refined-set-2016/1b7h/1b7h_pocket.pdb
REMARK  269 active torsions:
REMARK  status: ('A' for Active; 'I' for Inactive)
REMARK    1  A    between atoms: _1  and  _3
REMARK    2  A    between atoms: _3  and  _4
REMARK    3  A    between atoms: _6  and  _8
REMARK    4  A    between atoms: _8  and  _9
REMARK    5  A    between atoms: _8  and  _11
REMARK    6  A    between atoms: _11  and  _12
REMARK    7  A    between atoms: _14  and  _16
REMARK    8  A    between atoms: _16  and  _17
REMARK    9  A    between atoms: _16  and  _19
REMARK   10  A    between atoms: _19  and  _20
REMARK   11  A    between atoms: _20  and  _21
REMARK   12  A    between atoms: _26  and  _28
REMARK   13  A    between atoms: _28  and  _29
REMARK   14  A    between atoms: _28  and  _31
REMARK   15  A    between atoms: _31  and  _32
REMARK   16  A    between atoms: _35  and  _37
REMARK   17  A    between atoms: _37  and  _38
REMARK   18  A    between atoms: _37  and  _40
REMARK   19  A    between atoms: _40  and  _41
REMARK   20  A    between atoms: _41  and  _42
REMARK   21  A    between atoms: _45  and  _47
REMARK   22  A    between atoms: _47  and  _48
REMARK   23  A    between atoms: _50  and  _52
REMARK   24  A    between atoms: _52  and  _53
REMARK   25  A    between atoms: _52  and  _55
REMARK   26  A    between atoms: _59  and  _60
REMARK   27  A    between atoms: _65  and  _67
REMARK   28  A    between atoms: _67  and  _68
REMARK   29  A    between atoms: _67  and  _70
REMARK   30  A    between atoms: _70  and  _71
REMARK   31  A    between atoms: _71  and  _72
REMARK   32  A    between atoms: _75  and  _77
REMARK   33  A    between atoms: _77  and  _78
REMARK   34  A    between atoms: _77  and  _80
REMARK   35  A    between atoms: _80  and  _81
REMARK   36  A    between atoms: _83  and  _85
REMARK   37  A    between atoms: _85  and  _86
REMARK   38  A    between atoms: _85  and  _88
REMARK   39  A    between atoms: _88  and  _89
REMARK   40  A    between atoms: _94  and  _96
REMARK   41  A    between atoms: _96  and  _97
REMARK   42  A    between atoms: _96  and  _99
REMARK   43  A    between atoms: _99  and  _100
REMARK   44  A    between atoms: _100  and  _101
REMARK   45  A    between atoms: _101  and  _102
REMARK   46  A    between atoms: _112  and  _113
REMARK   47  A    between atoms: _118  and  _120
REMARK   48  A    between atoms: _120  and  _121
REMARK   49  A    between atoms: _120  and  _123
REMARK   50  A    between atoms: _123  and  _124
REMARK   51  A    between atoms: _129  and  _130
REMARK   52  A    between atoms: _132  and  _134
REMARK   53  A    between atoms: _134  and  _135
REMARK   54  A    between atoms: _134  and  _137
REMARK   55  A    between atoms: _137  and  _138
REMARK   56  A    between atoms: _143  and  _144
REMARK   57  A    between atoms: _146  and  _148
REMARK   58  A    between atoms: _148  and  _149
REMARK   59  A    between atoms: _148  and  _151
REMARK   60  A    between atoms: _154  and  _156
REMARK   61  A    between atoms: _156  and  _157
REMARK   62  A    between atoms: _156  and  _159
REMARK   63  A    between atoms: _159  and  _160
REMARK   64  A    between atoms: _166  and  _167
REMARK   65  A    between atoms: _172  and  _174
REMARK   66  A    between atoms: _174  and  _175
REMARK   67  A    between atoms: _174  and  _177
REMARK   68  A    between atoms: _177  and  _178
REMARK   69  A    between atoms: _180  and  _182
REMARK   70  A    between atoms: _182  and  _183
REMARK   71  A    between atoms: _182  and  _185
REMARK   72  A    between atoms: _185  and  _186
REMARK   73  A    between atoms: _191  and  _192
REMARK   74  A    between atoms: _194  and  _196
REMARK   75  A    between atoms: _196  and  _197
REMARK   76  A    between atoms: _196  and  _199
REMARK   77  A    between atoms: _199  and  _200
REMARK   78  A    between atoms: _205  and  _207
REMARK   79  A    between atoms: _207  and  _208
REMARK   80  A    between atoms: _207  and  _210
REMARK   81  A    between atoms: _210  and  _211
REMARK   82  A    between atoms: _216  and  _218
REMARK   83  A    between atoms: _218  and  _219
REMARK   84  A    between atoms: _218  and  _221
REMARK   85  A    between atoms: _221  and  _222
REMARK   86  A    between atoms: _222  and  _223
REMARK   87  A    between atoms: _225  and  _227
REMARK   88  A    between atoms: _227  and  _228
REMARK   89  A    between atoms: _227  and  _230
REMARK   90  A    between atoms: _230  and  _231
REMARK   91  A    between atoms: _236  and  _237
REMARK   92  A    between atoms: _239  and  _241
REMARK   93  A    between atoms: _241  and  _242
REMARK   94  A    between atoms: _241  and  _244
REMARK   95  A    between atoms: _244  and  _245
REMARK   96  A    between atoms: _248  and  _250
REMARK   97  A    between atoms: _250  and  _251
REMARK   98  A    between atoms: _250  and  _253
REMARK   99  A    between atoms: _253  and  _254
REMARK  100  A    between atoms: _254  and  _484
REMARK  101  A    between atoms: _255  and  _257
REMARK  102  A    between atoms: _257  and  _258
REMARK  103  A    between atoms: _257  and  _260
REMARK  104  A    between atoms: _260  and  _261
REMARK  105  A    between atoms: _264  and  _266
REMARK  106  A    between atoms: _266  and  _267
REMARK  107  A    between atoms: _266  and  _269
REMARK  108  A    between atoms: _269  and  _270
REMARK  109  A    between atoms: _275  and  _276
REMARK  110  A    between atoms: _278  and  _280
REMARK  111  A    between atoms: _280  and  _281
REMARK  112  A    between atoms: _280  and  _283
REMARK  113  A    between atoms: _283  and  _284
REMARK  114  A    between atoms: _289  and  _290
REMARK  115  A    between atoms: _292  and  _294
REMARK  116  A    between atoms: _294  and  _295
REMARK  117  A    between atoms: _294  and  _297
REMARK  118  A    between atoms: _297  and  _298
REMARK  119  A    between atoms: _298  and  _299
REMARK  120  A    between atoms: _302  and  _304
REMARK  121  A    between atoms: _304  and  _305
REMARK  122  A    between atoms: _304  and  _307
REMARK  123  A    between atoms: _307  and  _308
REMARK  124  A    between atoms: _308  and  _309
REMARK  125  A    between atoms: _309  and  _310
REMARK  126  A    between atoms: _310  and  _311
REMARK  127  A    between atoms: _315  and  _317
REMARK  128  A    between atoms: _317  and  _318
REMARK  129  A    between atoms: _317  and  _320
REMARK  130  A    between atoms: _320  and  _321
REMARK  131  A    between atoms: _326  and  _327
REMARK  132  A    between atoms: _329  and  _331
REMARK  133  A    between atoms: _331  and  _332
REMARK  134  A    between atoms: _331  and  _334
REMARK  135  A    between atoms: _334  and  _335
REMARK  136  A    between atoms: _340  and  _342
REMARK  137  A    between atoms: _342  and  _343
REMARK  138  A    between atoms: _342  and  _345
REMARK  139  A    between atoms: _345  and  _346
REMARK  140  A    between atoms: _349  and  _351
REMARK  141  A    between atoms: _351  and  _352
REMARK  142  A    between atoms: _351  and  _354
REMARK  143  A    between atoms: _354  and  _355
REMARK  144  A    between atoms: _360  and  _362
REMARK  145  A    between atoms: _362  and  _363
REMARK  146  A    between atoms: _362  and  _365
REMARK  147  A    between atoms: _365  and  _366
REMARK  148  A    between atoms: _376  and  _378
REMARK  149  A    between atoms: _378  and  _379
REMARK  150  A    between atoms: _378  and  _381
REMARK  151  A    between atoms: _381  and  _382
REMARK  152  A    between atoms: _388  and  _390
REMARK  153  A    between atoms: _390  and  _391
REMARK  154  A    between atoms: _390  and  _393
REMARK  155  A    between atoms: _393  and  _394
REMARK  156  A    between atoms: _397  and  _399
REMARK  157  A    between atoms: _399  and  _400
REMARK  158  A    between atoms: _399  and  _402
REMARK  159  A    between atoms: _402  and  _403
REMARK  160  A    between atoms: _406  and  _408
REMARK  161  A    between atoms: _408  and  _409
REMARK  162  A    between atoms: _408  and  _411
REMARK  163  A    between atoms: _411  and  _412
REMARK  164  A    between atoms: _412  and  _413
REMARK  165  A    between atoms: _413  and  _414
REMARK  166  A    between atoms: _423  and  _425
REMARK  167  A    between atoms: _425  and  _426
REMARK  168  A    between atoms: _425  and  _428
REMARK  169  A    between atoms: _428  and  _429
REMARK  170  A    between atoms: _434  and  _436
REMARK  171  A    between atoms: _436  and  _437
REMARK  172  A    between atoms: _436  and  _439
REMARK  173  A    between atoms: _439  and  _440
REMARK  174  A    between atoms: _440  and  _441
REMARK  175  A    between atoms: _441  and  _442
REMARK  176  A    between atoms: _451  and  _453
REMARK  177  A    between atoms: _453  and  _454
REMARK  178  A    between atoms: _457  and  _459
REMARK  179  A    between atoms: _459  and  _460
REMARK  180  A    between atoms: _462  and  _464
REMARK  181  A    between atoms: _464  and  _465
REMARK  182  A    between atoms: _464  and  _467
REMARK  183  A    between atoms: _467  and  _468
REMARK  184  A    between atoms: _478  and  _480
REMARK  185  A    between atoms: _480  and  _481
REMARK  186  A    between atoms: _480  and  _483
REMARK  187  A    between atoms: _483  and  _484
REMARK  188  A    between atoms: _485  and  _487
REMARK  189  A    between atoms: _487  and  _488
REMARK  190  A    between atoms: _491  and  _493
REMARK  191  A    between atoms: _493  and  _494
REMARK  192  A    between atoms: _493  and  _496
REMARK  193  A    between atoms: _496  and  _497
REMARK  194  A    between atoms: _500  and  _502
REMARK  195  A    between atoms: _502  and  _503
REMARK  196  A    between atoms: _502  and  _505
REMARK  197  A    between atoms: _505  and  _506
REMARK  198  A    between atoms: _511  and  _512
REMARK  199  A    between atoms: _514  and  _516
REMARK  200  A    between atoms: _516  and  _517
REMARK  201  A    between atoms: _516  and  _519
REMARK  202  A    between atoms: _519  and  _520
REMARK  203  A    between atoms: _522  and  _524
REMARK  204  A    between atoms: _524  and  _525
REMARK  205  A    between atoms: _524  and  _527
REMARK  206  A    between atoms: _527  and  _528
REMARK  207  A    between atoms: _534  and  _536
REMARK  208  A    between atoms: _536  and  _537
REMARK  209  A    between atoms: _536  and  _539
REMARK  210  A    between atoms: _539  and  _540
REMARK  211  A    between atoms: _543  and  _545
REMARK  212  A    between atoms: _545  and  _546
REMARK  213  A    between atoms: _545  and  _548
REMARK  214  A    between atoms: _548  and  _549
REMARK  215  A    between atoms: _551  and  _553
REMARK  216  A    between atoms: _553  and  _554
REMARK  217  A    between atoms: _553  and  _556
REMARK  218  A    between atoms: _556  and  _557
REMARK  219  A    between atoms: _562  and  _564
REMARK  220  A    between atoms: _564  and  _565
REMARK  221  A    between atoms: _564  and  _567
REMARK  222  A    between atoms: _567  and  _568
REMARK  223  A    between atoms: _573  and  _575
REMARK  224  A    between atoms: _575  and  _576
REMARK  225  A    between atoms: _575  and  _578
REMARK  226  A    between atoms: _578  and  _579
REMARK  227  A    between atoms: _582  and  _584
REMARK  228  A    between atoms: _584  and  _585
REMARK  229  A    between atoms: _588  and  _590
REMARK  230  A    between atoms: _590  and  _591
REMARK  231  A    between atoms: _590  and  _593
REMARK  232  A    between atoms: _593  and  _594
REMARK  233  A    between atoms: _599  and  _600
REMARK  234  A    between atoms: _602  and  _604
REMARK  235  A    between atoms: _604  and  _605
REMARK  236  A    between atoms: _604  and  _607
REMARK  237  A    between atoms: _607  and  _608
REMARK  238  A    between atoms: _613  and  _614
REMARK  239  A    between atoms: _616  and  _618
REMARK  240  A    between atoms: _618  and  _619
REMARK  241  A    between atoms: _618  and  _621
REMARK  242  A    between atoms: _624  and  _626
REMARK  243  A    between atoms: _626  and  _627
REMARK  244  A    between atoms: _626  and  _629
REMARK  245  A    between atoms: _629  and  _630
REMARK  246  A    between atoms: _635  and  _637
REMARK  247  A    between atoms: _637  and  _638
REMARK  248  A    between atoms: _641  and  _643
REMARK  249  A    between atoms: _643  and  _644
REMARK  250  A    between atoms: _643  and  _646
REMARK  251  A    between atoms: _646  and  _647
REMARK  252  A    between atoms: _647  and  _648
REMARK  253  A    between atoms: _648  and  _649
REMARK  254  A    between atoms: _658  and  _660
REMARK  255  A    between atoms: _660  and  _661
REMARK  256  A    between atoms: _660  and  _663
REMARK  257  A    between atoms: _663  and  _664
REMARK  258  A    between atoms: _667  and  _669
REMARK  259  A    between atoms: _669  and  _670
REMARK  260  A    between atoms: _669  and  _672
REMARK  261  A    between atoms: _672  and  _673
REMARK  262  A    between atoms: _676  and  _678
REMARK  263  A    between atoms: _678  and  _679
REMARK  264  A    between atoms: _678  and  _681
REMARK  265  A    between atoms: _681  and  _682
REMARK  266  A    between atoms: _687  and  _689
REMARK  267  A    between atoms: _689  and  _690
REMARK  268  A    between atoms: _689  and  _692
REMARK  269  A    between atoms: _692  and  _693
REMARK                            x       y       z     vdW  Elec       q    Type
REMARK                         _______ _______ _______ _____ _____    ______ ____
ROOT
ATOM      1  CA  ASN A   3      49.786  32.298  31.665  0.00  0.00    +0.158 C 
ENDROOT
BRANCH   1   3
ATOM      2  C   ASN A   2      49.260  32.676  29.343  0.00  0.00    +0.241 C 
ATOM      3  N   ASN A   3      50.199  32.411  30.257  0.00  0.00    -0.297 N 
ATOM      4  H   ASN A   3      51.194  32.288  29.981  0.00  0.00    +0.150 HD
ATOM      5  O   ASN A   2      48.078  32.919  29.696  0.00  0.00    -0.273 OA
BRANCH   2   6
ATOM      6  CA  ASN A   2      49.705  32.749  27.883  0.00  0.00    +0.158 C 
BRANCH   6   9
ATOM      7  C   SER A   1      52.108  33.179  27.653  0.00  0.00    +0.241 C 
ATOM      8  O   SER A   1      51.938  34.395  27.728  0.00  0.00    -0.274 OA
ATOM      9  N   ASN A   2      51.097  32.301  27.696  0.00  0.00    -0.297 N 
ATOM     10  H   ASN A   2      51.298  31.285  27.596  0.00  0.00    +0.150 HD
BRANCH   7  11
ATOM     11  CA  SER A   1      53.551  32.665  27.536  0.00  0.00    +0.174 C 
BRANCH  11  12
ATOM     12  N   SER A   1      53.629  31.261  27.891  0.00  0.00    -0.236 NA
ATOM     13  H   SER A   1      53.844  30.575  27.140  0.00  0.00    +0.142 HD
ENDBRANCH  11  12
BRANCH  11  14
ATOM     14  CB  SER A   1      54.067  32.849  26.095  0.00  0.00    +0.163 C 
BRANCH  14  15
ATOM     15  OG  SER A   1      53.227  32.111  25.188  0.00  0.00    -0.380 OA
ATOM     16  H   SER A   1      52.298  32.447  25.253  0.00  0.00    +0.211 HD
ENDBRANCH  14  15
ENDBRANCH  11  14
ENDBRANCH   7  11
ENDBRANCH   6   9
BRANCH   6  17
ATOM     17  CB  ASN A   2      48.778  31.793  27.101  0.00  0.00    +0.114 C 
BRANCH  17  18
ATOM     18  CG  ASN A   2      48.994  31.805  25.617  0.00  0.00    +0.222 C 
ATOM     19  OD1 ASN A   2      49.457  30.773  25.078  0.00  0.00    -0.275 OA
ATOM     20  ND2 ASN A   2      48.694  32.878  24.883  0.00  0.00    -0.329 N 
ATOM     21 HD21 ASN A   2      48.310  33.730  25.340  0.00  0.00    +0.145 HD
ATOM     22 HD22 ASN A   2      48.844  32.863  23.854  0.00  0.00    +0.145 HD
ENDBRANCH  17  18
ENDBRANCH   6  17
ENDBRANCH   2   6
ENDBRANCH   1   3
BRANCH   1  23
ATOM     23  C   ASN A   3      49.733  33.662  32.363  0.00  0.00    +0.241 C 
ATOM     24  O   ASN A   3      50.702  34.116  32.981  0.00  0.00    -0.273 OA
ATOM     25  N   THR A   4      48.580  34.320  32.220  0.00  0.00    -0.295 N 
ATOM     26  H   THR A   4      47.815  33.901  31.654  0.00  0.00    +0.150 HD
BRANCH  25  27
ATOM     27  CA  THR A   4      48.381  35.639  32.859  0.00  0.00    +0.176 C 
BRANCH  27  28
ATOM     28  C   THR A   4      47.789  35.472  34.238  0.00  0.00    +0.243 C 
ATOM     29  O   THR A   4      47.602  36.466  34.955  0.00  0.00    -0.273 OA
ATOM     30  N   ALA A   5      47.471  34.220  34.611  0.00  0.00    -0.298 N 
ATOM     31  H   ALA A   5      47.457  33.458  33.903  0.00  0.00    +0.150 HD
BRANCH  30  32
ATOM     32  CA  ALA A   5      47.149  33.927  35.984  0.00  0.00    +0.137 C 
ATOM     33  CB  ALA A   5      46.591  32.532  36.211  0.00  0.00    +0.030 C 
BRANCH  32  34
ATOM     34  C   ALA A   5      48.455  34.048  36.799  0.00  0.00    +0.227 C 
ATOM     35  O   ALA A   5      48.406  34.213  38.019  0.00  0.00    -0.286 OA
ENDBRANCH  32  34
ENDBRANCH  30  32
ENDBRANCH  27  28
BRANCH  27  36
ATOM     36  CB  THR A   4      47.515  36.557  31.963  0.00  0.00    +0.137 C 
ATOM     37  CG2 THR A   4      48.407  36.984  30.799  0.00  0.00    +0.034 C 
BRANCH  36  38
ATOM     38  OG1 THR A   4      46.380  35.783  31.507  0.00  0.00    -0.382 OA
ATOM     39  HG1 THR A   4      45.858  35.473  32.289  0.00  0.00    +0.210 HD
ENDBRANCH  36  38
ENDBRANCH  27  36
ENDBRANCH  25  27
ENDBRANCH   1  23
BRANCH   1  40
ATOM     40  CB  ASN A   3      50.720  31.322  32.380  0.00  0.00    +0.114 C 
BRANCH  40  41
ATOM     41  CG  ASN A   3      50.274  31.000  33.787  0.00  0.00    +0.222 C 
ATOM     42  OD1 ASN A   3      49.636  31.746  34.504  0.00  0.00    -0.275 OA
ATOM     43  ND2 ASN A   3      50.697  29.808  34.253  0.00  0.00    -0.329 N 
ATOM     44 HD21 ASN A   3      50.478  29.524  35.229  0.00  0.00    +0.145 HD
ATOM     45 HD22 ASN A   3      51.243  29.173  33.636  0.00  0.00    +0.145 HD
ENDBRANCH  40  41
ENDBRANCH   1  40
TORSDOF 18
REMARK  Name = ../refined-set-2016/1b7h/1b7h_pocket.pdb
REMARK  269 active torsions:
REMARK  status: ('A' for Active; 'I' for Inactive)
REMARK    1  A    between atoms: _1  and  _3
REMARK    2  A    between atoms: _3  and  _4
REMARK    3  A    between atoms: _6  and  _8
REMARK    4  A    between atoms: _8  and  _9
REMARK    5  A    between atoms: _8  and  _11
REMARK    6  A    between atoms: _11  and  _12
REMARK    7  A    between atoms: _14  and  _16
REMARK    8  A    between atoms: _16  and  _17
REMARK    9  A    between atoms: _16  and  _19
REMARK   10  A    between atoms: _19  and  _20
REMARK   11  A    between atoms: _20  and  _21
REMARK   12  A    between atoms: _26  and  _28
REMARK   13  A    between atoms: _28  and  _29
REMARK   14  A    between atoms: _28  and  _31
REMARK   15  A    between atoms: _31  and  _32
REMARK   16  A    between atoms: _35  and  _37
REMARK   17  A    between atoms: _37  and  _38
REMARK   18  A    between atoms: _37  and  _40
REMARK   19  A    between atoms: _40  and  _41
REMARK   20  A    between atoms: _41  and  _42
REMARK   21  A    between atoms: _45  and  _47
REMARK   22  A    between atoms: _47  and  _48
REMARK   23  A    between atoms: _50  and  _52
REMARK   24  A    between atoms: _52  and  _53
REMARK   25  A    between atoms: _52  and  _55
REMARK   26  A    between atoms: _59  and  _60
REMARK   27  A    between atoms: _65  and  _67
REMARK   28  A    between atoms: _67  and  _68
REMARK   29  A    between atoms: _67  and  _70
REMARK   30  A    between atoms: _70  and  _71
REMARK   31  A    between atoms: _71  and  _72
REMARK   32  A    between atoms: _75  and  _77
REMARK   33  A    between atoms: _77  and  _78
REMARK   34  A    between atoms: _77  and  _80
REMARK   35  A    between atoms: _80  and  _81
REMARK   36  A    between atoms: _83  and  _85
REMARK   37  A    between atoms: _85  and  _86
REMARK   38  A    between atoms: _85  and  _88
REMARK   39  A    between atoms: _88  and  _89
REMARK   40  A    between atoms: _94  and  _96
REMARK   41  A    between atoms: _96  and  _97
REMARK   42  A    between atoms: _96  and  _99
REMARK   43  A    between atoms: _99  and  _100
REMARK   44  A    between atoms: _100  and  _101
REMARK   45  A    between atoms: _101  and  _102
REMARK   46  A    between atoms: _112  and  _113
REMARK   47  A    between atoms: _118  and  _120
REMARK   48  A    between atoms: _120  and  _121
REMARK   49  A    between atoms: _120  and  _123
REMARK   50  A    between atoms: _123  and  _124
REMARK   51  A    between atoms: _129  and  _130
REMARK   52  A    between atoms: _132  and  _134
REMARK   53  A    between atoms: _134  and  _135
REMARK   54  A    between atoms: _134  and  _137
REMARK   55  A    between atoms: _137  and  _138
REMARK   56  A    between atoms: _143  and  _144
REMARK   57  A    between atoms: _146  and  _148
REMARK   58  A    between atoms: _148  and  _149
REMARK   59  A    between atoms: _148  and  _151
REMARK   60  A    between atoms: _154  and  _156
REMARK   61  A    between atoms: _156  and  _157
REMARK   62  A    between atoms: _156  and  _159
REMARK   63  A    between atoms: _159  and  _160
REMARK   64  A    between atoms: _166  and  _167
REMARK   65  A    between atoms: _172  and  _174
REMARK   66  A    between atoms: _174  and  _175
REMARK   67  A    between atoms: _174  and  _177
REMARK   68  A    between atoms: _177  and  _178
REMARK   69  A    between atoms: _180  and  _182
REMARK   70  A    between atoms: _182  and  _183
REMARK   71  A    between atoms: _182  and  _185
REMARK   72  A    between atoms: _185  and  _186
REMARK   73  A    between atoms: _191  and  _192
REMARK   74  A    between atoms: _194  and  _196
REMARK   75  A    between atoms: _196  and  _197
REMARK   76  A    between atoms: _196  and  _199
REMARK   77  A    between atoms: _199  and  _200
REMARK   78  A    between atoms: _205  and  _207
REMARK   79  A    between atoms: _207  and  _208
REMARK   80  A    between atoms: _207  and  _210
REMARK   81  A    between atoms: _210  and  _211
REMARK   82  A    between atoms: _216  and  _218
REMARK   83  A    between atoms: _218  and  _219
REMARK   84  A    between atoms: _218  and  _221
REMARK   85  A    between atoms: _221  and  _222
REMARK   86  A    between atoms: _222  and  _223
REMARK   87  A    between atoms: _225  and  _227
REMARK   88  A    between atoms: _227  and  _228
REMARK   89  A    between atoms: _227  and  _230
REMARK   90  A    between atoms: _230  and  _231
REMARK   91  A    between atoms: _236  and  _237
REMARK   92  A    between atoms: _239  and  _241
REMARK   93  A    between atoms: _241  and  _242
REMARK   94  A    between atoms: _241  and  _244
REMARK   95  A    between atoms: _244  and  _245
REMARK   96  A    between atoms: _248  and  _250
REMARK   97  A    between atoms: _250  and  _251
REMARK   98  A    between atoms: _250  and  _253
REMARK   99  A    between atoms: _253  and  _254
REMARK  100  A    between atoms: _254  and  _484
REMARK  101  A    between atoms: _255  and  _257
REMARK  102  A    between atoms: _257  and  _258
REMARK  103  A    between atoms: _257  and  _260
REMARK  104  A    between atoms: _260  and  _261
REMARK  105  A    between atoms: _264  and  _266
REMARK  106  A    between atoms: _266  and  _267
REMARK  107  A    between atoms: _266  and  _269
REMARK  108  A    between atoms: _269  and  _270
REMARK  109  A    between atoms: _275  and  _276
REMARK  110  A    between atoms: _278  and  _280
REMARK  111  A    between atoms: _280  and  _281
REMARK  112  A    between atoms: _280  and  _283
REMARK  113  A    between atoms: _283  and  _284
REMARK  114  A    between atoms: _289  and  _290
REMARK  115  A    between atoms: _292  and  _294
REMARK  116  A    between atoms: _294  and  _295
REMARK  117  A    between atoms: _294  and  _297
REMARK  118  A    between atoms: _297  and  _298
REMARK  119  A    between atoms: _298  and  _299
REMARK  120  A    between atoms: _302  and  _304
REMARK  121  A    between atoms: _304  and  _305
REMARK  122  A    between atoms: _304  and  _307
REMARK  123  A    between atoms: _307  and  _308
REMARK  124  A    between atoms: _308  and  _309
REMARK  125  A    between atoms: _309  and  _310
REMARK  126  A    between atoms: _310  and  _311
REMARK  127  A    between atoms: _315  and  _317
REMARK  128  A    between atoms: _317  and  _318
REMARK  129  A    between atoms: _317  and  _320
REMARK  130  A    between atoms: _320  and  _321
REMARK  131  A    between atoms: _326  and  _327
REMARK  132  A    between atoms: _329  and  _331
REMARK  133  A    between atoms: _331  and  _332
REMARK  134  A    between atoms: _331  and  _334
REMARK  135  A    between atoms: _334  and  _335
REMARK  136  A    between atoms: _340  and  _342
REMARK  137  A    between atoms: _342  and  _343
REMARK  138  A    between atoms: _342  and  _345
REMARK  139  A    between atoms: _345  and  _346
REMARK  140  A    between atoms: _349  and  _351
REMARK  141  A    between atoms: _351  and  _352
REMARK  142  A    between atoms: _351  and  _354
REMARK  143  A    between atoms: _354  and  _355
REMARK  144  A    between atoms: _360  and  _362
REMARK  145  A    between atoms: _362  and  _363
REMARK  146  A    between atoms: _362  and  _365
REMARK  147  A    between atoms: _365  and  _366
REMARK  148  A    between atoms: _376  and  _378
REMARK  149  A    between atoms: _378  and  _379
REMARK  150  A    between atoms: _378  and  _381
REMARK  151  A    between atoms: _381  and  _382
REMARK  152  A    between atoms: _388  and  _390
REMARK  153  A    between atoms: _390  and  _391
REMARK  154  A    between atoms: _390  and  _393
REMARK  155  A    between atoms: _393  and  _394
REMARK  156  A    between atoms: _397  and  _399
REMARK  157  A    between atoms: _399  and  _400
REMARK  158  A    between atoms: _399  and  _402
REMARK  159  A    between atoms: _402  and  _403
REMARK  160  A    between atoms: _406  and  _408
REMARK  161  A    between atoms: _408  and  _409
REMARK  162  A    between atoms: _408  and  _411
REMARK  163  A    between atoms: _411  and  _412
REMARK  164  A    between atoms: _412  and  _413
REMARK  165  A    between atoms: _413  and  _414
REMARK  166  A    between atoms: _423  and  _425
REMARK  167  A    between atoms: _425  and  _426
REMARK  168  A    between atoms: _425  and  _428
REMARK  169  A    between atoms: _428  and  _429
REMARK  170  A    between atoms: _434  and  _436
REMARK  171  A    between atoms: _436  and  _437
REMARK  172  A    between atoms: _436  and  _439
REMARK  173  A    between atoms: _439  and  _440
REMARK  174  A    between atoms: _440  and  _441
REMARK  175  A    between atoms: _441  and  _442
REMARK  176  A    between atoms: _451  and  _453
REMARK  177  A    between atoms: _453  and  _454
REMARK  178  A    between atoms: _457  and  _459
REMARK  179  A    between atoms: _459  and  _460
REMARK  180  A    between atoms: _462  and  _464
REMARK  181  A    between atoms: _464  and  _465
REMARK  182  A    between atoms: _464  and  _467
REMARK  183  A    between atoms: _467  and  _468
REMARK  184  A    between atoms: _478  and  _480
REMARK  185  A    between atoms: _480  and  _481
REMARK  186  A    between atoms: _480  and  _483
REMARK  187  A    between atoms: _483  and  _484
REMARK  188  A    between atoms: _485  and  _487
REMARK  189  A    between atoms: _487  and  _488
REMARK  190  A    between atoms: _491  and  _493
REMARK  191  A    between atoms: _493  and  _494
REMARK  192  A    between atoms: _493  and  _496
REMARK  193  A    between atoms: _496  and  _497
REMARK  194  A    between atoms: _500  and  _502
REMARK  195  A    between atoms: _502  and  _503
REMARK  196  A    between atoms: _502  and  _505
REMARK  197  A    between atoms: _505  and  _506
REMARK  198  A    between atoms: _511  and  _512
REMARK  199  A    between atoms: _514  and  _516
REMARK  200  A    between atoms: _516  and  _517
REMARK  201  A    between atoms: _516  and  _519
REMARK  202  A    between atoms: _519  and  _520
REMARK  203  A    between atoms: _522  and  _524
REMARK  204  A    between atoms: _524  and  _525
REMARK  205  A    between atoms: _524  and  _527
REMARK  206  A    between atoms: _527  and  _528
REMARK  207  A    between atoms: _534  and  _536
REMARK  208  A    between atoms: _536  and  _537
REMARK  209  A    between atoms: _536  and  _539
REMARK  210  A    between atoms: _539  and  _540
REMARK  211  A    between atoms: _543  and  _545
REMARK  212  A    between atoms: _545  and  _546
REMARK  213  A    between atoms: _545  and  _548
REMARK  214  A    between atoms: _548  and  _549
REMARK  215  A    between atoms: _551  and  _553
REMARK  216  A    between atoms: _553  and  _554
REMARK  217  A    between atoms: _553  and  _556
REMARK  218  A    between atoms: _556  and  _557
REMARK  219  A    between atoms: _562  and  _564
REMARK  220  A    between atoms: _564  and  _565
REMARK  221  A    between atoms: _564  and  _567
REMARK  222  A    between atoms: _567  and  _568
REMARK  223  A    between atoms: _573  and  _575
REMARK  224  A    between atoms: _575  and  _576
REMARK  225  A    between atoms: _575  and  _578
REMARK  226  A    between atoms: _578  and  _579
REMARK  227  A    between atoms: _582  and  _584
REMARK  228  A    between atoms: _584  and  _585
REMARK  229  A    between atoms: _588  and  _590
REMARK  230  A    between atoms: _590  and  _591
REMARK  231  A    between atoms: _590  and  _593
REMARK  232  A    between atoms: _593  and  _594
REMARK  233  A    between atoms: _599  and  _600
REMARK  234  A    between atoms: _602  and  _604
REMARK  235  A    between atoms: _604  and  _605
REMARK  236  A    between atoms: _604  and  _607
REMARK  237  A    between atoms: _607  and  _608
REMARK  238  A    between atoms: _613  and  _614
REMARK  239  A    between atoms: _616  and  _618
REMARK  240  A    between atoms: _618  and  _619
REMARK  241  A    between atoms: _618  and  _621
REMARK  242  A    between atoms: _624  and  _626
REMARK  243  A    between atoms: _626  and  _627
REMARK  244  A    between atoms: _626  and  _629
REMARK  245  A    between atoms: _629  and  _630
REMARK  246  A    between atoms: _635  and  _637
REMARK  247  A    between atoms: _637  and  _638
REMARK  248  A    between atoms: _641  and  _643
REMARK  249  A    between atoms: _643  and  _644
REMARK  250  A    between atoms: _643  and  _646
REMARK  251  A    between atoms: _646  and  _647
REMARK  252  A    between atoms: _647  and  _648
REMARK  253  A    between atoms: _648  and  _649
REMARK  254  A    between atoms: _658  and  _660
REMARK  255  A    between atoms: _660  and  _661
REMARK  256  A    between atoms: _660  and  _663
REMARK  257  A    between atoms: _663  and  _664
REMARK  258  A    between atoms: _667  and  _669
REMARK  259  A    between atoms: _669  and  _670
REMARK  260  A    between atoms: _669  and  _672
REMARK  261  A    between atoms: _672  and  _673
REMARK  262  A    between atoms: _676  and  _678
REMARK  263  A    between atoms: _678  and  _679
REMARK  264  A    between atoms: _678  and  _681
REMARK  265  A    between atoms: _681  and  _682
REMARK  266  A    between atoms: _687  and  _689
REMARK  267  A    between atoms: _689  and  _690
REMARK  268  A    between atoms: _689  and  _692
REMARK  269  A    between atoms: _692  and  _693
REMARK                            x       y       z     vdW  Elec       q    Type
REMARK                         _______ _______ _______ _____ _____    ______ ____
ROOT
ATOM      1  CG  TYR A   1      29.292  32.978  32.230  0.00  0.00    -0.020 A 
ATOM      2  CD2 TYR A   1      29.173  34.206  32.888  0.00  0.00    -0.001 A 
ATOM      3  CE2 TYR A   1      29.286  35.417  32.237  0.00  0.00    +0.036 A 
ATOM      4  CZ  TYR A   1      29.482  35.426  30.882  0.00  0.00    +0.134 A 
ATOM      5  CE1 TYR A   1      29.629  34.238  30.179  0.00  0.00    +0.036 A 
ATOM      6  CD1 TYR A   1      29.502  33.056  30.866  0.00  0.00    -0.001 A 
ENDROOT
BRANCH   4   7
ATOM      7  OH  TYR A   1      29.608  36.610  30.183  0.00  0.00    -0.506 OA
ATOM      8  HH  TYR A   1      29.743  36.412  29.222  0.00  0.00    +0.292 HD
ENDBRANCH   4   7
BRANCH   1   9
ATOM      9  CB  TYR A   1      29.130  31.673  32.949  0.00  0.00    +0.051 C 
BRANCH   9  10
ATOM     10  CA  TYR A   1      30.349  30.817  33.344  0.00  0.00    +0.137 C 
BRANCH  10  11
ATOM     11  N   TYR A   1      31.283  31.540  34.224  0.00  0.00    -0.239 NA
ATOM     12  H   TYR A   1      32.092  32.073  33.845  0.00  0.00    +0.142 HD
ENDBRANCH  10  11
BRANCH  10  13
ATOM     13  C   TYR A   1      31.003  30.346  32.063  0.00  0.00    +0.224 C 
ATOM     14  O   TYR A   1      32.056  30.857  31.616  0.00  0.00    -0.287 OA
ENDBRANCH  10  13
ENDBRANCH   9  10
ENDBRANCH   1   9
TORSDOF 5
REMARK  Name = ../refined-set-2016/1b7h/1b7h_pocket.pdb
REMARK  269 active torsions:
REMARK  status: ('A' for Active; 'I' for Inactive)
REMARK    1  A    between atoms: _1  and  _3
REMARK    2  A    between atoms: _3  and  _4
REMARK    3  A    between atoms: _6  and  _8
REMARK    4  A    between atoms: _8  and  _9
REMARK    5  A    between atoms: _8  and  _11
REMARK    6  A    between atoms: _11  and  _12
REMARK    7  A    between atoms: _14  and  _16
REMARK    8  A    between atoms: _16  and  _17
REMARK    9  A    between atoms: _16  and  _19
REMARK   10  A    between atoms: _19  and  _20
REMARK   11  A    between atoms: _20  and  _21
REMARK   12  A    between atoms: _26  and  _28
REMARK   13  A    between atoms: _28  and  _29
REMARK   14  A    between atoms: _28  and  _31
REMARK   15  A    between atoms: _31  and  _32
REMARK   16  A    between atoms: _35  and  _37
REMARK   17  A    between atoms: _37  and  _38
REMARK   18  A    between atoms: _37  and  _40
REMARK   19  A    between atoms: _40  and  _41
REMARK   20  A    between atoms: _41  and  _42
REMARK   21  A    between atoms: _45  and  _47
REMARK   22  A    between atoms: _47  and  _48
REMARK   23  A    between atoms: _50  and  _52
REMARK   24  A    between atoms: _52  and  _53
REMARK   25  A    between atoms: _52  and  _55
REMARK   26  A    between atoms: _59  and  _60
REMARK   27  A    between atoms: _65  and  _67
REMARK   28  A    between atoms: _67  and  _68
REMARK   29  A    between atoms: _67  and  _70
REMARK   30  A    between atoms: _70  and  _71
REMARK   31  A    between atoms: _71  and  _72
REMARK   32  A    between atoms: _75  and  _77
REMARK   33  A    between atoms: _77  and  _78
REMARK   34  A    between atoms: _77  and  _80
REMARK   35  A    between atoms: _80  and  _81
REMARK   36  A    between atoms: _83  and  _85
REMARK   37  A    between atoms: _85  and  _86
REMARK   38  A    between atoms: _85  and  _88
REMARK   39  A    between atoms: _88  and  _89
REMARK   40  A    between atoms: _94  and  _96
REMARK   41  A    between atoms: _96  and  _97
REMARK   42  A    between atoms: _96  and  _99
REMARK   43  A    between atoms: _99  and  _100
REMARK   44  A    between atoms: _100  and  _101
REMARK   45  A    between atoms: _101  and  _102
REMARK   46  A    between atoms: _112  and  _113
REMARK   47  A    between atoms: _118  and  _120
REMARK   48  A    between atoms: _120  and  _121
REMARK   49  A    between atoms: _120  and  _123
REMARK   50  A    between atoms: _123  and  _124
REMARK   51  A    between atoms: _129  and  _130
REMARK   52  A    between atoms: _132  and  _134
REMARK   53  A    between atoms: _134  and  _135
REMARK   54  A    between atoms: _134  and  _137
REMARK   55  A    between atoms: _137  and  _138
REMARK   56  A    between atoms: _143  and  _144
REMARK   57  A    between atoms: _146  and  _148
REMARK   58  A    between atoms: _148  and  _149
REMARK   59  A    between atoms: _148  and  _151
REMARK   60  A    between atoms: _154  and  _156
REMARK   61  A    between atoms: _156  and  _157
REMARK   62  A    between atoms: _156  and  _159
REMARK   63  A    between atoms: _159  and  _160
REMARK   64  A    between atoms: _166  and  _167
REMARK   65  A    between atoms: _172  and  _174
REMARK   66  A    between atoms: _174  and  _175
REMARK   67  A    between atoms: _174  and  _177
REMARK   68  A    between atoms: _177  and  _178
REMARK   69  A    between atoms: _180  and  _182
REMARK   70  A    between atoms: _182  and  _183
REMARK   71  A    between atoms: _182  and  _185
REMARK   72  A    between atoms: _185  and  _186
REMARK   73  A    between atoms: _191  and  _192
REMARK   74  A    between atoms: _194  and  _196
REMARK   75  A    between atoms: _196  and  _197
REMARK   76  A    between atoms: _196  and  _199
REMARK   77  A    between atoms: _199  and  _200
REMARK   78  A    between atoms: _205  and  _207
REMARK   79  A    between atoms: _207  and  _208
REMARK   80  A    between atoms: _207  and  _210
REMARK   81  A    between atoms: _210  and  _211
REMARK   82  A    between atoms: _216  and  _218
REMARK   83  A    between atoms: _218  and  _219
REMARK   84  A    between atoms: _218  and  _221
REMARK   85  A    between atoms: _221  and  _222
REMARK   86  A    between atoms: _222  and  _223
REMARK   87  A    between atoms: _225  and  _227
REMARK   88  A    between atoms: _227  and  _228
REMARK   89  A    between atoms: _227  and  _230
REMARK   90  A    between atoms: _230  and  _231
REMARK   91  A    between atoms: _236  and  _237
REMARK   92  A    between atoms: _239  and  _241
REMARK   93  A    between atoms: _241  and  _242
REMARK   94  A    between atoms: _241  and  _244
REMARK   95  A    between atoms: _244  and  _245
REMARK   96  A    between atoms: _248  and  _250
REMARK   97  A    between atoms: _250  and  _251
REMARK   98  A    between atoms: _250  and  _253
REMARK   99  A    between atoms: _253  and  _254
REMARK  100  A    between atoms: _254  and  _484
REMARK  101  A    between atoms: _255  and  _257
REMARK  102  A    between atoms: _257  and  _258
REMARK  103  A    between atoms: _257  and  _260
REMARK  104  A    between atoms: _260  and  _261
REMARK  105  A    between atoms: _264  and  _266
REMARK  106  A    between atoms: _266  and  _267
REMARK  107  A    between atoms: _266  and  _269
REMARK  108  A    between atoms: _269  and  _270
REMARK  109  A    between atoms: _275  and  _276
REMARK  110  A    between atoms: _278  and  _280
REMARK  111  A    between atoms: _280  and  _281
REMARK  112  A    between atoms: _280  and  _283
REMARK  113  A    between atoms: _283  and  _284
REMARK  114  A    between atoms: _289  and  _290
REMARK  115  A    between atoms: _292  and  _294
REMARK  116  A    between atoms: _294  and  _295
REMARK  117  A    between atoms: _294  and  _297
REMARK  118  A    between atoms: _297  and  _298
REMARK  119  A    between atoms: _298  and  _299
REMARK  120  A    between atoms: _302  and  _304
REMARK  121  A    between atoms: _304  and  _305
REMARK  122  A    between atoms: _304  and  _307
REMARK  123  A    between atoms: _307  and  _308
REMARK  124  A    between atoms: _308  and  _309
REMARK  125  A    between atoms: _309  and  _310
REMARK  126  A    between atoms: _310  and  _311
REMARK  127  A    between atoms: _315  and  _317
REMARK  128  A    between atoms: _317  and  _318
REMARK  129  A    between atoms: _317  and  _320
REMARK  130  A    between atoms: _320  and  _321
REMARK  131  A    between atoms: _326  and  _327
REMARK  132  A    between atoms: _329  and  _331
REMARK  133  A    between atoms: _331  and  _332
REMARK  134  A    between atoms: _331  and  _334
REMARK  135  A    between atoms: _334  and  _335
REMARK  136  A    between atoms: _340  and  _342
REMARK  137  A    between atoms: _342  and  _343
REMARK  138  A    between atoms: _342  and  _345
REMARK  139  A    between atoms: _345  and  _346
REMARK  140  A    between atoms: _349  and  _351
REMARK  141  A    between atoms: _351  and  _352
REMARK  142  A    between atoms: _351  and  _354
REMARK  143  A    between atoms: _354  and  _355
REMARK  144  A    between atoms: _360  and  _362
REMARK  145  A    between atoms: _362  and  _363
REMARK  146  A    between atoms: _362  and  _365
REMARK  147  A    between atoms: _365  and  _366
REMARK  148  A    between atoms: _376  and  _378
REMARK  149  A    between atoms: _378  and  _379
REMARK  150  A    between atoms: _378  and  _381
REMARK  151  A    between atoms: _381  and  _382
REMARK  152  A    between atoms: _388  and  _390
REMARK  153  A    between atoms: _390  and  _391
REMARK  154  A    between atoms: _390  and  _393
REMARK  155  A    between atoms: _393  and  _394
REMARK  156  A    between atoms: _397  and  _399
REMARK  157  A    between atoms: _399  and  _400
REMARK  158  A    between atoms: _399  and  _402
REMARK  159  A    between atoms: _402  and  _403
REMARK  160  A    between atoms: _406  and  _408
REMARK  161  A    between atoms: _408  and  _409
REMARK  162  A    between atoms: _408  and  _411
REMARK  163  A    between atoms: _411  and  _412
REMARK  164  A    between atoms: _412  and  _413
REMARK  165  A    between atoms: _413  and  _414
REMARK  166  A    between atoms: _423  and  _425
REMARK  167  A    between atoms: _425  and  _426
REMARK  168  A    between atoms: _425  and  _428
REMARK  169  A    between atoms: _428  and  _429
REMARK  170  A    between atoms: _434  and  _436
REMARK  171  A    between atoms: _436  and  _437
REMARK  172  A    between atoms: _436  and  _439
REMARK  173  A    between atoms: _439  and  _440
REMARK  174  A    between atoms: _440  and  _441
REMARK  175  A    between atoms: _441  and  _442
REMARK  176  A    between atoms: _451  and  _453
REMARK  177  A    between atoms: _453  and  _454
REMARK  178  A    between atoms: _457  and  _459
REMARK  179  A    between atoms: _459  and  _460
REMARK  180  A    between atoms: _462  and  _464
REMARK  181  A    between atoms: _464  and  _465
REMARK  182  A    between atoms: _464  and  _467
REMARK  183  A    between atoms: _467  and  _468
REMARK  184  A    between atoms: _478  and  _480
REMARK  185  A    between atoms: _480  and  _481
REMARK  186  A    between atoms: _480  and  _483
REMARK  187  A    between atoms: _483  and  _484
REMARK  188  A    between atoms: _485  and  _487
REMARK  189  A    between atoms: _487  and  _488
REMARK  190  A    between atoms: _491  and  _493
REMARK  191  A    between atoms: _493  and  _494
REMARK  192  A    between atoms: _493  and  _496
REMARK  193  A    between atoms: _496  and  _497
REMARK  194  A    between atoms: _500  and  _502
REMARK  195  A    between atoms: _502  and  _503
REMARK  196  A    between atoms: _502  and  _505
REMARK  197  A    between atoms: _505  and  _506
REMARK  198  A    between atoms: _511  and  _512
REMARK  199  A    between atoms: _514  and  _516
REMARK  200  A    between atoms: _516  and  _517
REMARK  201  A    between atoms: _516  and  _519
REMARK  202  A    between atoms: _519  and  _520
REMARK  203  A    between atoms: _522  and  _524
REMARK  204  A    between atoms: _524  and  _525
REMARK  205  A    between atoms: _524  and  _527
REMARK  206  A    between atoms: _527  and  _528
REMARK  207  A    between atoms: _534  and  _536
REMARK  208  A    between atoms: _536  and  _537
REMARK  209  A    between atoms: _536  and  _539
REMARK  210  A    between atoms: _539  and  _540
REMARK  211  A    between atoms: _543  and  _545
REMARK  212  A    between atoms: _545  and  _546
REMARK  213  A    between atoms: _545  and  _548
REMARK  214  A    between atoms: _548  and  _549
REMARK  215  A    between atoms: _551  and  _553
REMARK  216  A    between atoms: _553  and  _554
REMARK  217  A    between atoms: _553  and  _556
REMARK  218  A    between atoms: _556  and  _557
REMARK  219  A    between atoms: _562  and  _564
REMARK  220  A    between atoms: _564  and  _565
REMARK  221  A    between atoms: _564  and  _567
REMARK  222  A    between atoms: _567  and  _568
REMARK  223  A    between atoms: _573  and  _575
REMARK  224  A    between atoms: _575  and  _576
REMARK  225  A    between atoms: _575  and  _578
REMARK  226  A    between atoms: _578  and  _579
REMARK  227  A    between atoms: _582  and  _584
REMARK  228  A    between atoms: _584  and  _585
REMARK  229  A    between atoms: _588  and  _590
REMARK  230  A    between atoms: _590  and  _591
REMARK  231  A    between atoms: _590  and  _593
REMARK  232  A    between atoms: _593  and  _594
REMARK  233  A    between atoms: _599  and  _600
REMARK  234  A    between atoms: _602  and  _604
REMARK  235  A    between atoms: _604  and  _605
REMARK  236  A    between atoms: _604  and  _607
REMARK  237  A    between atoms: _607  and  _608
REMARK  238  A    between atoms: _613  and  _614
REMARK  239  A    between atoms: _616  and  _618
REMARK  240  A    between atoms: _618  and  _619
REMARK  241  A    between atoms: _618  and  _621
REMARK  242  A    between atoms: _624  and  _626
REMARK  243  A    between atoms: _626  and  _627
REMARK  244  A    between atoms: _626  and  _629
REMARK  245  A    between atoms: _629  and  _630
REMARK  246  A    between atoms: _635  and  _637
REMARK  247  A    between atoms: _637  and  _638
REMARK  248  A    between atoms: _641  and  _643
REMARK  249  A    between atoms: _643  and  _644
REMARK  250  A    between atoms: _643  and  _646
REMARK  251  A    between atoms: _646  and  _647
REMARK  252  A    between atoms: _647  and  _648
REMARK  253  A    between atoms: _648  and  _649
REMARK  254  A    between atoms: _658  and  _660
REMARK  255  A    between atoms: _660  and  _661
REMARK  256  A    between atoms: _660  and  _663
REMARK  257  A    between atoms: _663  and  _664
REMARK  258  A    between atoms: _667  and  _669
REMARK  259  A    between atoms: _669  and  _670
REMARK  260  A    between atoms: _669  and  _672
REMARK  261  A    between atoms: _672  and  _673
REMARK  262  A    between atoms: _676  and  _678
REMARK  263  A    between atoms: _678  and  _679
REMARK  264  A    between atoms: _678  and  _681
REMARK  265  A    between atoms: _681  and  _682
REMARK  266  A    between atoms: _687  and  _689
REMARK  267  A    between atoms: _689  and  _690
REMARK  268  A    between atoms: _689  and  _692
REMARK  269  A    between atoms: _692  and  _693
REMARK                            x       y       z     vdW  Elec       q    Type
REMARK                         _______ _______ _______ _____ _____    ______ ____
ROOT
ATOM      1  CA  ASN A   3      28.228  32.585  21.264  0.00  0.00    +0.158 C 
ENDROOT
BRANCH   1   2
ATOM      2  C   ASN A   3      26.962  33.363  20.813  0.00  0.00    +0.241 C 
ATOM      3  N   ALA A   4      26.785  34.577  21.301  0.00  0.00    -0.297 N 
ATOM      4  H   ALA A   4      27.510  34.995  21.919  0.00  0.00    +0.150 HD
ATOM      5  O   ASN A   3      26.176  32.862  19.988  0.00  0.00    -0.273 OA
BRANCH   3   6
ATOM      6  CA  ALA A   4      25.577  35.341  20.980  0.00  0.00    +0.149 C 
ATOM      7  CB  ALA A   4      24.839  35.641  22.301  0.00  0.00    +0.031 C 
BRANCH   6   8
ATOM      8  C   ALA A   4      25.920  36.607  20.242  0.00  0.00    +0.241 C 
ATOM      9  O   ALA A   4      26.757  37.399  20.694  0.00  0.00    -0.273 OA
ATOM     10  N   ARG A   5      25.297  36.755  19.060  0.00  0.00    -0.298 N 
ATOM     11  H   ARG A   5      24.625  36.028  18.741  0.00  0.00    +0.150 HD
BRANCH  10  12
ATOM     12  CA  ARG A   5      25.547  37.910  18.225  0.00  0.00    +0.137 C 
BRANCH  12  13
ATOM     13  C   ARG A   5      24.354  38.134  17.271  0.00  0.00    +0.227 C 
ATOM     14  O   ARG A   5      23.601  37.229  16.974  0.00  0.00    -0.286 OA
ENDBRANCH  12  13
BRANCH  12  15
ATOM     15  CB  ARG A   5      26.830  37.727  17.379  0.00  0.00    +0.031 C 
BRANCH  15  16
ATOM     16  CG  ARG A   5      26.797  36.411  16.590  0.00  0.00    +0.045 C 
BRANCH  16  17
ATOM     17  CD  ARG A   5      27.637  36.552  15.290  0.00  0.00    +0.174 C 
BRANCH  17  18
ATOM     18  NE  ARG A   5      29.011  36.947  15.543  0.00  0.00    -0.265 N 
ATOM     19  CZ  ARG A   5      30.135  36.291  15.754  0.00  0.00    +0.342 C 
ATOM     20  NH2 ARG A   5      31.229  37.017  15.963  0.00  0.00    -0.292 N 
ATOM     21 HH21 ARG A   5      32.141  36.546  16.134  0.00  0.00    +0.255 HD
ATOM     22 HH22 ARG A   5      31.173  38.055  15.955  0.00  0.00    +0.255 HD
ATOM     23  NH1 ARG A   5      30.376  35.017  15.742  0.00  0.00    -0.292 N 
ATOM     24 HH11 ARG A   5      31.337  34.668  15.933  0.00  0.00    +0.255 HD
ATOM     25 HH12 ARG A   5      29.609  34.344  15.541  0.00  0.00    +0.255 HD
ATOM     26  HE  ARG A   5      29.137  37.979  15.562  0.00  0.00    +0.259 HD
ENDBRANCH  17  18
ENDBRANCH  16  17
ENDBRANCH  15  16
ENDBRANCH  12  15
ENDBRANCH  10  12
ENDBRANCH   6   8
ENDBRANCH   3   6
ENDBRANCH   1   2
BRANCH   1  29
ATOM     27  C   VAL A   2      27.829  31.995  23.579  0.00  0.00    +0.241 C 
ATOM     28  O   VAL A   2      28.250  33.095  24.006  0.00  0.00    -0.273 OA
ATOM     29  N   ASN A   3      27.802  31.672  22.307  0.00  0.00    -0.297 N 
ATOM     30  H   ASN A   3      27.463  30.727  22.037  0.00  0.00    +0.150 HD
BRANCH  27  31
ATOM     31  CA  VAL A   2      27.243  31.026  24.603  0.00  0.00    +0.148 C 
BRANCH  31  34
ATOM     32  C   TYR A   1      29.053  30.613  26.227  0.00  0.00    +0.239 C 
ATOM     33  O   TYR A   1      29.193  29.445  25.896  0.00  0.00    -0.274 OA
ATOM     34  N   VAL A   2      28.010  31.319  25.792  0.00  0.00    -0.297 N 
ATOM     35  H   VAL A   2      27.725  32.147  26.353  0.00  0.00    +0.150 HD
BRANCH  32  36
ATOM     36  CA  TYR A   1      29.935  31.346  27.258  0.00  0.00    +0.149 C 
BRANCH  36  37
ATOM     37  N   TYR A   1      30.656  30.434  28.194  0.00  0.00    -0.238 NA
ATOM     38  H   TYR A   1      31.683  30.297  28.102  0.00  0.00    +0.142 HD
ENDBRANCH  36  37
BRANCH  36  39
ATOM     39  CB  TYR A   1      30.884  32.132  26.347  0.00  0.00    +0.053 C 
BRANCH  39  40
ATOM     40  CG  TYR A   1      31.792  33.233  26.796  0.00  0.00    -0.020 A 
ATOM     41  CD2 TYR A   1      32.823  33.048  27.742  0.00  0.00    -0.001 A 
ATOM     42  CE2 TYR A   1      33.640  34.096  28.043  0.00  0.00    +0.036 A 
ATOM     43  CZ  TYR A   1      33.425  35.358  27.541  0.00  0.00    +0.134 A 
ATOM     44  CE1 TYR A   1      32.393  35.592  26.627  0.00  0.00    +0.036 A 
ATOM     45  CD1 TYR A   1      31.593  34.521  26.244  0.00  0.00    -0.001 A 
BRANCH  43  46
ATOM     46  OH  TYR A   1      34.220  36.413  27.873  0.00  0.00    -0.506 OA
ATOM     47  HH  TYR A   1      34.664  36.760  27.059  0.00  0.00    +0.292 HD
ENDBRANCH  43  46
ENDBRANCH  39  40
ENDBRANCH  36  39
ENDBRANCH  32  36
ENDBRANCH  31  34
BRANCH  31  48
ATOM     48  CB  VAL A   2      25.714  31.306  24.632  0.00  0.00    +0.027 C 
ATOM     49  CG2 VAL A   2      25.118  30.125  25.407  0.00  0.00    +0.002 C 
ATOM     50  CG1 VAL A   2      25.334  32.555  25.334  0.00  0.00    +0.002 C 
ENDBRANCH  31  48
ENDBRANCH  27  31
ENDBRANCH   1  29
BRANCH   1  51
ATOM     51  CB  ASN A   3      28.864  31.774  20.126  0.00  0.00    +0.114 C 
BRANCH  51  52
ATOM     52  CG  ASN A   3      29.392  32.689  19.042  0.00  0.00    +0.222 C 
ATOM     53  OD1 ASN A   3      29.389  33.930  19.213  0.00  0.00    -0.275 OA
ATOM     54  ND2 ASN A   3      29.838  32.145  17.921  0.00  0.00    -0.329 N 
ATOM     55 HD21 ASN A   3      29.829  31.112  17.805  0.00  0.00    +0.145 HD
ATOM     56 HD22 ASN A   3      30.197  32.751  17.156  0.00  0.00    +0.145 HD
ENDBRANCH  51  52
ENDBRANCH   1  51
TORSDOF 20
REMARK  Name = ../refined-set-2016/1b7h/1b7h_pocket.pdb
REMARK  269 active torsions:
REMARK  status: ('A' for Active; 'I' for Inactive)
REMARK    1  A    between atoms: _1  and  _3
REMARK    2  A    between atoms: _3  and  _4
REMARK    3  A    between atoms: _6  and  _8
REMARK    4  A    between atoms: _8  and  _9
REMARK    5  A    between atoms: _8  and  _11
REMARK    6  A    between atoms: _11  and  _12
REMARK    7  A    between atoms: _14  and  _16
REMARK    8  A    between atoms: _16  and  _17
REMARK    9  A    between atoms: _16  and  _19
REMARK   10  A    between atoms: _19  and  _20
REMARK   11  A    between atoms: _20  and  _21
REMARK   12  A    between atoms: _26  and  _28
REMARK   13  A    between atoms: _28  and  _29
REMARK   14  A    between atoms: _28  and  _31
REMARK   15  A    between atoms: _31  and  _32
REMARK   16  A    between atoms: _35  and  _37
REMARK   17  A    between atoms: _37  and  _38
REMARK   18  A    between atoms: _37  and  _40
REMARK   19  A    between atoms: _40  and  _41
REMARK   20  A    between atoms: _41  and  _42
REMARK   21  A    between atoms: _45  and  _47
REMARK   22  A    between atoms: _47  and  _48
REMARK   23  A    between atoms: _50  and  _52
REMARK   24  A    between atoms: _52  and  _53
REMARK   25  A    between atoms: _52  and  _55
REMARK   26  A    between atoms: _59  and  _60
REMARK   27  A    between atoms: _65  and  _67
REMARK   28  A    between atoms: _67  and  _68
REMARK   29  A    between atoms: _67  and  _70
REMARK   30  A    between atoms: _70  and  _71
REMARK   31  A    between atoms: _71  and  _72
REMARK   32  A    between atoms: _75  and  _77
REMARK   33  A    between atoms: _77  and  _78
REMARK   34  A    between atoms: _77  and  _80
REMARK   35  A    between atoms: _80  and  _81
REMARK   36  A    between atoms: _83  and  _85
REMARK   37  A    between atoms: _85  and  _86
REMARK   38  A    between atoms: _85  and  _88
REMARK   39  A    between atoms: _88  and  _89
REMARK   40  A    between atoms: _94  and  _96
REMARK   41  A    between atoms: _96  and  _97
REMARK   42  A    between atoms: _96  and  _99
REMARK   43  A    between atoms: _99  and  _100
REMARK   44  A    between atoms: _100  and  _101
REMARK   45  A    between atoms: _101  and  _102
REMARK   46  A    between atoms: _112  and  _113
REMARK   47  A    between atoms: _118  and  _120
REMARK   48  A    between atoms: _120  and  _121
REMARK   49  A    between atoms: _120  and  _123
REMARK   50  A    between atoms: _123  and  _124
REMARK   51  A    between atoms: _129  and  _130
REMARK   52  A    between atoms: _132  and  _134
REMARK   53  A    between atoms: _134  and  _135
REMARK   54  A    between atoms: _134  and  _137
REMARK   55  A    between atoms: _137  and  _138
REMARK   56  A    between atoms: _143  and  _144
REMARK   57  A    between atoms: _146  and  _148
REMARK   58  A    between atoms: _148  and  _149
REMARK   59  A    between atoms: _148  and  _151
REMARK   60  A    between atoms: _154  and  _156
REMARK   61  A    between atoms: _156  and  _157
REMARK   62  A    between atoms: _156  and  _159
REMARK   63  A    between atoms: _159  and  _160
REMARK   64  A    between atoms: _166  and  _167
REMARK   65  A    between atoms: _172  and  _174
REMARK   66  A    between atoms: _174  and  _175
REMARK   67  A    between atoms: _174  and  _177
REMARK   68  A    between atoms: _177  and  _178
REMARK   69  A    between atoms: _180  and  _182
REMARK   70  A    between atoms: _182  and  _183
REMARK   71  A    between atoms: _182  and  _185
REMARK   72  A    between atoms: _185  and  _186
REMARK   73  A    between atoms: _191  and  _192
REMARK   74  A    between atoms: _194  and  _196
REMARK   75  A    between atoms: _196  and  _197
REMARK   76  A    between atoms: _196  and  _199
REMARK   77  A    between atoms: _199  and  _200
REMARK   78  A    between atoms: _205  and  _207
REMARK   79  A    between atoms: _207  and  _208
REMARK   80  A    between atoms: _207  and  _210
REMARK   81  A    between atoms: _210  and  _211
REMARK   82  A    between atoms: _216  and  _218
REMARK   83  A    between atoms: _218  and  _219
REMARK   84  A    between atoms: _218  and  _221
REMARK   85  A    between atoms: _221  and  _222
REMARK   86  A    between atoms: _222  and  _223
REMARK   87  A    between atoms: _225  and  _227
REMARK   88  A    between atoms: _227  and  _228
REMARK   89  A    between atoms: _227  and  _230
REMARK   90  A    between atoms: _230  and  _231
REMARK   91  A    between atoms: _236  and  _237
REMARK   92  A    between atoms: _239  and  _241
REMARK   93  A    between atoms: _241  and  _242
REMARK   94  A    between atoms: _241  and  _244
REMARK   95  A    between atoms: _244  and  _245
REMARK   96  A    between atoms: _248  and  _250
REMARK   97  A    between atoms: _250  and  _251
REMARK   98  A    between atoms: _250  and  _253
REMARK   99  A    between atoms: _253  and  _254
REMARK  100  A    between atoms: _254  and  _484
REMARK  101  A    between atoms: _255  and  _257
REMARK  102  A    between atoms: _257  and  _258
REMARK  103  A    between atoms: _257  and  _260
REMARK  104  A    between atoms: _260  and  _261
REMARK  105  A    between atoms: _264  and  _266
REMARK  106  A    between atoms: _266  and  _267
REMARK  107  A    between atoms: _266  and  _269
REMARK  108  A    between atoms: _269  and  _270
REMARK  109  A    between atoms: _275  and  _276
REMARK  110  A    between atoms: _278  and  _280
REMARK  111  A    between atoms: _280  and  _281
REMARK  112  A    between atoms: _280  and  _283
REMARK  113  A    between atoms: _283  and  _284
REMARK  114  A    between atoms: _289  and  _290
REMARK  115  A    between atoms: _292  and  _294
REMARK  116  A    between atoms: _294  and  _295
REMARK  117  A    between atoms: _294  and  _297
REMARK  118  A    between atoms: _297  and  _298
REMARK  119  A    between atoms: _298  and  _299
REMARK  120  A    between atoms: _302  and  _304
REMARK  121  A    between atoms: _304  and  _305
REMARK  122  A    between atoms: _304  and  _307
REMARK  123  A    between atoms: _307  and  _308
REMARK  124  A    between atoms: _308  and  _309
REMARK  125  A    between atoms: _309  and  _310
REMARK  126  A    between atoms: _310  and  _311
REMARK  127  A    between atoms: _315  and  _317
REMARK  128  A    between atoms: _317  and  _318
REMARK  129  A    between atoms: _317  and  _320
REMARK  130  A    between atoms: _320  and  _321
REMARK  131  A    between atoms: _326  and  _327
REMARK  132  A    between atoms: _329  and  _331
REMARK  133  A    between atoms: _331  and  _332
REMARK  134  A    between atoms: _331  and  _334
REMARK  135  A    between atoms: _334  and  _335
REMARK  136  A    between atoms: _340  and  _342
REMARK  137  A    between atoms: _342  and  _343
REMARK  138  A    between atoms: _342  and  _345
REMARK  139  A    between atoms: _345  and  _346
REMARK  140  A    between atoms: _349  and  _351
REMARK  141  A    between atoms: _351  and  _352
REMARK  142  A    between atoms: _351  and  _354
REMARK  143  A    between atoms: _354  and  _355
REMARK  144  A    between atoms: _360  and  _362
REMARK  145  A    between atoms: _362  and  _363
REMARK  146  A    between atoms: _362  and  _365
REMARK  147  A    between atoms: _365  and  _366
REMARK  148  A    between atoms: _376  and  _378
REMARK  149  A    between atoms: _378  and  _379
REMARK  150  A    between atoms: _378  and  _381
REMARK  151  A    between atoms: _381  and  _382
REMARK  152  A    between atoms: _388  and  _390
REMARK  153  A    between atoms: _390  and  _391
REMARK  154  A    between atoms: _390  and  _393
REMARK  155  A    between atoms: _393  and  _394
REMARK  156  A    between atoms: _397  and  _399
REMARK  157  A    between atoms: _399  and  _400
REMARK  158  A    between atoms: _399  and  _402
REMARK  159  A    between atoms: _402  and  _403
REMARK  160  A    between atoms: _406  and  _408
REMARK  161  A    between atoms: _408  and  _409
REMARK  162  A    between atoms: _408  and  _411
REMARK  163  A    between atoms: _411  and  _412
REMARK  164  A    between atoms: _412  and  _413
REMARK  165  A    between atoms: _413  and  _414
REMARK  166  A    between atoms: _423  and  _425
REMARK  167  A    between atoms: _425  and  _426
REMARK  168  A    between atoms: _425  and  _428
REMARK  169  A    between atoms: _428  and  _429
REMARK  170  A    between atoms: _434  and  _436
REMARK  171  A    between atoms: _436  and  _437
REMARK  172  A    between atoms: _436  and  _439
REMARK  173  A    between atoms: _439  and  _440
REMARK  174  A    between atoms: _440  and  _441
REMARK  175  A    between atoms: _441  and  _442
REMARK  176  A    between atoms: _451  and  _453
REMARK  177  A    between atoms: _453  and  _454
REMARK  178  A    between atoms: _457  and  _459
REMARK  179  A    between atoms: _459  and  _460
REMARK  180  A    between atoms: _462  and  _464
REMARK  181  A    between atoms: _464  and  _465
REMARK  182  A    between atoms: _464  and  _467
REMARK  183  A    between atoms: _467  and  _468
REMARK  184  A    between atoms: _478  and  _480
REMARK  185  A    between atoms: _480  and  _481
REMARK  186  A    between atoms: _480  and  _483
REMARK  187  A    between atoms: _483  and  _484
REMARK  188  A    between atoms: _485  and  _487
REMARK  189  A    between atoms: _487  and  _488
REMARK  190  A    between atoms: _491  and  _493
REMARK  191  A    between atoms: _493  and  _494
REMARK  192  A    between atoms: _493  and  _496
REMARK  193  A    between atoms: _496  and  _497
REMARK  194  A    between atoms: _500  and  _502
REMARK  195  A    between atoms: _502  and  _503
REMARK  196  A    between atoms: _502  and  _505
REMARK  197  A    between atoms: _505  and  _506
REMARK  198  A    between atoms: _511  and  _512
REMARK  199  A    between atoms: _514  and  _516
REMARK  200  A    between atoms: _516  and  _517
REMARK  201  A    between atoms: _516  and  _519
REMARK  202  A    between atoms: _519  and  _520
REMARK  203  A    between atoms: _522  and  _524
REMARK  204  A    between atoms: _524  and  _525
REMARK  205  A    between atoms: _524  and  _527
REMARK  206  A    between atoms: _527  and  _528
REMARK  207  A    between atoms: _534  and  _536
REMARK  208  A    between atoms: _536  and  _537
REMARK  209  A    between atoms: _536  and  _539
REMARK  210  A    between atoms: _539  and  _540
REMARK  211  A    between atoms: _543  and  _545
REMARK  212  A    between atoms: _545  and  _546
REMARK  213  A    between atoms: _545  and  _548
REMARK  214  A    between atoms: _548  and  _549
REMARK  215  A    between atoms: _551  and  _553
REMARK  216  A    between atoms: _553  and  _554
REMARK  217  A    between atoms: _553  and  _556
REMARK  218  A    between atoms: _556  and  _557
REMARK  219  A    between atoms: _562  and  _564
REMARK  220  A    between atoms: _564  and  _565
REMARK  221  A    between atoms: _564  and  _567
REMARK  222  A    between atoms: _567  and  _568
REMARK  223  A    between atoms: _573  and  _575
REMARK  224  A    between atoms: _575  and  _576
REMARK  225  A    between atoms: _575  and  _578
REMARK  226  A    between atoms: _578  and  _579
REMARK  227  A    between atoms: _582  and  _584
REMARK  228  A    between atoms: _584  and  _585
REMARK  229  A    between atoms: _588  and  _590
REMARK  230  A    between atoms: _590  and  _591
REMARK  231  A    between atoms: _590  and  _593
REMARK  232  A    between atoms: _593  and  _594
REMARK  233  A    between atoms: _599  and  _600
REMARK  234  A    between atoms: _602  and  _604
REMARK  235  A    between atoms: _604  and  _605
REMARK  236  A    between atoms: _604  and  _607
REMARK  237  A    between atoms: _607  and  _608
REMARK  238  A    between atoms: _613  and  _614
REMARK  239  A    between atoms: _616  and  _618
REMARK  240  A    between atoms: _618  and  _619
REMARK  241  A    between atoms: _618  and  _621
REMARK  242  A    between atoms: _624  and  _626
REMARK  243  A    between atoms: _626  and  _627
REMARK  244  A    between atoms: _626  and  _629
REMARK  245  A    between atoms: _629  and  _630
REMARK  246  A    between atoms: _635  and  _637
REMARK  247  A    between atoms: _637  and  _638
REMARK  248  A    between atoms: _641  and  _643
REMARK  249  A    between atoms: _643  and  _644
REMARK  250  A    between atoms: _643  and  _646
REMARK  251  A    between atoms: _646  and  _647
REMARK  252  A    between atoms: _647  and  _648
REMARK  253  A    between atoms: _648  and  _649
REMARK  254  A    between atoms: _658  and  _660
REMARK  255  A    between atoms: _660  and  _661
REMARK  256  A    between atoms: _660  and  _663
REMARK  257  A    between atoms: _663  and  _664
REMARK  258  A    between atoms: _667  and  _669
REMARK  259  A    between atoms: _669  and  _670
REMARK  260  A    between atoms: _669  and  _672
REMARK  261  A    between atoms: _672  and  _673
REMARK  262  A    between atoms: _676  and  _678
REMARK  263  A    between atoms: _678  and  _679
REMARK  264  A    between atoms: _678  and  _681
REMARK  265  A    between atoms: _681  and  _682
REMARK  266  A    between atoms: _687  and  _689
REMARK  267  A    between atoms: _689  and  _690
REMARK  268  A    between atoms: _689  and  _692
REMARK  269  A    between atoms: _692  and  _693
REMARK                            x       y       z     vdW  Elec       q    Type
REMARK                         _______ _______ _______ _____ _____    ______ ____
ROOT
ATOM      1  C   ASP A   2      34.856  31.075  15.137  0.00  0.00    +0.241 C 
ATOM      2  O   ASP A   2      35.171  32.276  15.095  0.00  0.00    -0.273 OA
ATOM      3  N   ASN A   3      35.549  30.200  14.403  0.00  0.00    -0.297 N 
ATOM      4  H   ASN A   3      35.299  29.192  14.459  0.00  0.00    +0.150 HD
ENDROOT
BRANCH   3   5
ATOM      5  CA  ASN A   3      36.648  30.607  13.522  0.00  0.00    +0.158 C 
BRANCH   5   6
ATOM      6  C   ASN A   3      36.100  31.039  12.157  0.00  0.00    +0.241 C 
ATOM      7  N   ILE A   4      35.467  32.235  12.146  0.00  0.00    -0.298 N 
ATOM      8  H   ILE A   4      35.476  32.827  13.001  0.00  0.00    +0.150 HD
ATOM      9  O   ASN A   3      36.081  30.329  11.159  0.00  0.00    -0.273 OA
BRANCH   7  10
ATOM     10  CA  ILE A   4      34.777  32.702  10.962  0.00  0.00    +0.137 C 
BRANCH  10  11
ATOM     11  C   ILE A   4      35.741  33.194   9.898  0.00  0.00    +0.227 C 
ATOM     12  O   ILE A   4      36.696  33.848  10.301  0.00  0.00    -0.286 OA
ENDBRANCH  10  11
BRANCH  10  13
ATOM     13  CB  ILE A   4      33.831  33.860  11.339  0.00  0.00    +0.026 C 
ATOM     14  CG2 ILE A   4      33.193  34.435  10.072  0.00  0.00    +0.002 C 
BRANCH  13  15
ATOM     15  CG1 ILE A   4      32.794  33.475  12.380  0.00  0.00    +0.002 C 
ATOM     16  CD1 ILE A   4      32.130  32.125  12.298  0.00  0.00    +0.000 C 
ENDBRANCH  13  15
ENDBRANCH  10  13
ENDBRANCH   7  10
ENDBRANCH   5   6
BRANCH   5  17
ATOM     17  CB  ASN A   3      37.676  29.495  13.308  0.00  0.00    +0.114 C 
BRANCH  17  18
ATOM     18  CG  ASN A   3      38.682  29.380  14.471  0.00  0.00    +0.222 C 
ATOM     19  OD1 ASN A   3      39.152  30.380  14.955  0.00  0.00    -0.275 OA
ATOM     20  ND2 ASN A   3      38.996  28.163  14.849  0.00  0.00    -0.329 N 
ATOM     21 HD21 ASN A   3      39.690  28.018  15.610  0.00  0.00    +0.145 HD
ATOM     22 HD22 ASN A   3      38.551  27.344  14.387  0.00  0.00    +0.145 HD
ENDBRANCH  17  18
ENDBRANCH   5  17
ENDBRANCH   3   5
BRANCH   1  23
ATOM     23  CA  ASP A   2      33.738  30.653  16.081  0.00  0.00    +0.160 C 
BRANCH  23  26
ATOM     24  C   LEU A   1      35.131  29.253  17.531  0.00  0.00    +0.238 C 
ATOM     25  O   LEU A   1      35.926  30.179  17.683  0.00  0.00    -0.274 OA
ATOM     26  N   ASP A   2      34.005  29.403  16.803  0.00  0.00    -0.297 N 
ATOM     27  H   ASP A   2      33.318  28.624  16.753  0.00  0.00    +0.150 HD
BRANCH  24  28
ATOM     28  CA  LEU A   1      35.425  27.896  18.161  0.00  0.00    +0.145 C 
BRANCH  28  29
ATOM     29  N   LEU A   1      34.328  26.982  17.960  0.00  0.00    -0.238 NA
ATOM     30  H   LEU A   1      34.292  26.449  17.067  0.00  0.00    +0.142 HD
ENDBRANCH  28  29
BRANCH  28  31
ATOM     31  CB  LEU A   1      36.769  27.439  17.541  0.00  0.00    +0.026 C 
BRANCH  31  32
ATOM     32  CG  LEU A   1      37.358  26.084  17.975  0.00  0.00    +0.002 C 
ATOM     33  CD2 LEU A   1      36.980  25.617  19.357  0.00  0.00    +0.000 C 
ATOM     34  CD1 LEU A   1      38.881  25.968  17.965  0.00  0.00    +0.000 C 
ENDBRANCH  31  32
ENDBRANCH  28  31
ENDBRANCH  24  28
ENDBRANCH  23  26
BRANCH  23  35
ATOM     35  CB  ASP A   2      33.437  31.794  17.058  0.00  0.00    +0.143 C 
BRANCH  35  36
ATOM     36  CG  ASP A   2      32.624  32.911  16.353  0.00  0.00    +0.367 C 
ATOM     37  OD2 ASP A   2      32.964  34.116  16.499  0.00  0.00    -0.246 OA
ATOM     38  OD1 ASP A   2      31.723  32.592  15.566  0.00  0.00    -0.246 OA
ENDBRANCH  35  36
ENDBRANCH  23  35
ENDBRANCH   1  23
TORSDOF 16
REMARK  Name = ../refined-set-2016/1b7h/1b7h_pocket.pdb
REMARK  269 active torsions:
REMARK  status: ('A' for Active; 'I' for Inactive)
REMARK    1  A    between atoms: _1  and  _3
REMARK    2  A    between atoms: _3  and  _4
REMARK    3  A    between atoms: _6  and  _8
REMARK    4  A    between atoms: _8  and  _9
REMARK    5  A    between atoms: _8  and  _11
REMARK    6  A    between atoms: _11  and  _12
REMARK    7  A    between atoms: _14  and  _16
REMARK    8  A    between atoms: _16  and  _17
REMARK    9  A    between atoms: _16  and  _19
REMARK   10  A    between atoms: _19  and  _20
REMARK   11  A    between atoms: _20  and  _21
REMARK   12  A    between atoms: _26  and  _28
REMARK   13  A    between atoms: _28  and  _29
REMARK   14  A    between atoms: _28  and  _31
REMARK   15  A    between atoms: _31  and  _32
REMARK   16  A    between atoms: _35  and  _37
REMARK   17  A    between atoms: _37  and  _38
REMARK   18  A    between atoms: _37  and  _40
REMARK   19  A    between atoms: _40  and  _41
REMARK   20  A    between atoms: _41  and  _42
REMARK   21  A    between atoms: _45  and  _47
REMARK   22  A    between atoms: _47  and  _48
REMARK   23  A    between atoms: _50  and  _52
REMARK   24  A    between atoms: _52  and  _53
REMARK   25  A    between atoms: _52  and  _55
REMARK   26  A    between atoms: _59  and  _60
REMARK   27  A    between atoms: _65  and  _67
REMARK   28  A    between atoms: _67  and  _68
REMARK   29  A    between atoms: _67  and  _70
REMARK   30  A    between atoms: _70  and  _71
REMARK   31  A    between atoms: _71  and  _72
REMARK   32  A    between atoms: _75  and  _77
REMARK   33  A    between atoms: _77  and  _78
REMARK   34  A    between atoms: _77  and  _80
REMARK   35  A    between atoms: _80  and  _81
REMARK   36  A    between atoms: _83  and  _85
REMARK   37  A    between atoms: _85  and  _86
REMARK   38  A    between atoms: _85  and  _88
REMARK   39  A    between atoms: _88  and  _89
REMARK   40  A    between atoms: _94  and  _96
REMARK   41  A    between atoms: _96  and  _97
REMARK   42  A    between atoms: _96  and  _99
REMARK   43  A    between atoms: _99  and  _100
REMARK   44  A    between atoms: _100  and  _101
REMARK   45  A    between atoms: _101  and  _102
REMARK   46  A    between atoms: _112  and  _113
REMARK   47  A    between atoms: _118  and  _120
REMARK   48  A    between atoms: _120  and  _121
REMARK   49  A    between atoms: _120  and  _123
REMARK   50  A    between atoms: _123  and  _124
REMARK   51  A    between atoms: _129  and  _130
REMARK   52  A    between atoms: _132  and  _134
REMARK   53  A    between atoms: _134  and  _135
REMARK   54  A    between atoms: _134  and  _137
REMARK   55  A    between atoms: _137  and  _138
REMARK   56  A    between atoms: _143  and  _144
REMARK   57  A    between atoms: _146  and  _148
REMARK   58  A    between atoms: _148  and  _149
REMARK   59  A    between atoms: _148  and  _151
REMARK   60  A    between atoms: _154  and  _156
REMARK   61  A    between atoms: _156  and  _157
REMARK   62  A    between atoms: _156  and  _159
REMARK   63  A    between atoms: _159  and  _160
REMARK   64  A    between atoms: _166  and  _167
REMARK   65  A    between atoms: _172  and  _174
REMARK   66  A    between atoms: _174  and  _175
REMARK   67  A    between atoms: _174  and  _177
REMARK   68  A    between atoms: _177  and  _178
REMARK   69  A    between atoms: _180  and  _182
REMARK   70  A    between atoms: _182  and  _183
REMARK   71  A    between atoms: _182  and  _185
REMARK   72  A    between atoms: _185  and  _186
REMARK   73  A    between atoms: _191  and  _192
REMARK   74  A    between atoms: _194  and  _196
REMARK   75  A    between atoms: _196  and  _197
REMARK   76  A    between atoms: _196  and  _199
REMARK   77  A    between atoms: _199  and  _200
REMARK   78  A    between atoms: _205  and  _207
REMARK   79  A    between atoms: _207  and  _208
REMARK   80  A    between atoms: _207  and  _210
REMARK   81  A    between atoms: _210  and  _211
REMARK   82  A    between atoms: _216  and  _218
REMARK   83  A    between atoms: _218  and  _219
REMARK   84  A    between atoms: _218  and  _221
REMARK   85  A    between atoms: _221  and  _222
REMARK   86  A    between atoms: _222  and  _223
REMARK   87  A    between atoms: _225  and  _227
REMARK   88  A    between atoms: _227  and  _228
REMARK   89  A    between atoms: _227  and  _230
REMARK   90  A    between atoms: _230  and  _231
REMARK   91  A    between atoms: _236  and  _237
REMARK   92  A    between atoms: _239  and  _241
REMARK   93  A    between atoms: _241  and  _242
REMARK   94  A    between atoms: _241  and  _244
REMARK   95  A    between atoms: _244  and  _245
REMARK   96  A    between atoms: _248  and  _250
REMARK   97  A    between atoms: _250  and  _251
REMARK   98  A    between atoms: _250  and  _253
REMARK   99  A    between atoms: _253  and  _254
REMARK  100  A    between atoms: _254  and  _484
REMARK  101  A    between atoms: _255  and  _257
REMARK  102  A    between atoms: _257  and  _258
REMARK  103  A    between atoms: _257  and  _260
REMARK  104  A    between atoms: _260  and  _261
REMARK  105  A    between atoms: _264  and  _266
REMARK  106  A    between atoms: _266  and  _267
REMARK  107  A    between atoms: _266  and  _269
REMARK  108  A    between atoms: _269  and  _270
REMARK  109  A    between atoms: _275  and  _276
REMARK  110  A    between atoms: _278  and  _280
REMARK  111  A    between atoms: _280  and  _281
REMARK  112  A    between atoms: _280  and  _283
REMARK  113  A    between atoms: _283  and  _284
REMARK  114  A    between atoms: _289  and  _290
REMARK  115  A    between atoms: _292  and  _294
REMARK  116  A    between atoms: _294  and  _295
REMARK  117  A    between atoms: _294  and  _297
REMARK  118  A    between atoms: _297  and  _298
REMARK  119  A    between atoms: _298  and  _299
REMARK  120  A    between atoms: _302  and  _304
REMARK  121  A    between atoms: _304  and  _305
REMARK  122  A    between atoms: _304  and  _307
REMARK  123  A    between atoms: _307  and  _308
REMARK  124  A    between atoms: _308  and  _309
REMARK  125  A    between atoms: _309  and  _310
REMARK  126  A    between atoms: _310  and  _311
REMARK  127  A    between atoms: _315  and  _317
REMARK  128  A    between atoms: _317  and  _318
REMARK  129  A    between atoms: _317  and  _320
REMARK  130  A    between atoms: _320  and  _321
REMARK  131  A    between atoms: _326  and  _327
REMARK  132  A    between atoms: _329  and  _331
REMARK  133  A    between atoms: _331  and  _332
REMARK  134  A    between atoms: _331  and  _334
REMARK  135  A    between atoms: _334  and  _335
REMARK  136  A    between atoms: _340  and  _342
REMARK  137  A    between atoms: _342  and  _343
REMARK  138  A    between atoms: _342  and  _345
REMARK  139  A    between atoms: _345  and  _346
REMARK  140  A    between atoms: _349  and  _351
REMARK  141  A    between atoms: _351  and  _352
REMARK  142  A    between atoms: _351  and  _354
REMARK  143  A    between atoms: _354  and  _355
REMARK  144  A    between atoms: _360  and  _362
REMARK  145  A    between atoms: _362  and  _363
REMARK  146  A    between atoms: _362  and  _365
REMARK  147  A    between atoms: _365  and  _366
REMARK  148  A    between atoms: _376  and  _378
REMARK  149  A    between atoms: _378  and  _379
REMARK  150  A    between atoms: _378  and  _381
REMARK  151  A    between atoms: _381  and  _382
REMARK  152  A    between atoms: _388  and  _390
REMARK  153  A    between atoms: _390  and  _391
REMARK  154  A    between atoms: _390  and  _393
REMARK  155  A    between atoms: _393  and  _394
REMARK  156  A    between atoms: _397  and  _399
REMARK  157  A    between atoms: _399  and  _400
REMARK  158  A    between atoms: _399  and  _402
REMARK  159  A    between atoms: _402  and  _403
REMARK  160  A    between atoms: _406  and  _408
REMARK  161  A    between atoms: _408  and  _409
REMARK  162  A    between atoms: _408  and  _411
REMARK  163  A    between atoms: _411  and  _412
REMARK  164  A    between atoms: _412  and  _413
REMARK  165  A    between atoms: _413  and  _414
REMARK  166  A    between atoms: _423  and  _425
REMARK  167  A    between atoms: _425  and  _426
REMARK  168  A    between atoms: _425  and  _428
REMARK  169  A    between atoms: _428  and  _429
REMARK  170  A    between atoms: _434  and  _436
REMARK  171  A    between atoms: _436  and  _437
REMARK  172  A    between atoms: _436  and  _439
REMARK  173  A    between atoms: _439  and  _440
REMARK  174  A    between atoms: _440  and  _441
REMARK  175  A    between atoms: _441  and  _442
REMARK  176  A    between atoms: _451  and  _453
REMARK  177  A    between atoms: _453  and  _454
REMARK  178  A    between atoms: _457  and  _459
REMARK  179  A    between atoms: _459  and  _460
REMARK  180  A    between atoms: _462  and  _464
REMARK  181  A    between atoms: _464  and  _465
REMARK  182  A    between atoms: _464  and  _467
REMARK  183  A    between atoms: _467  and  _468
REMARK  184  A    between atoms: _478  and  _480
REMARK  185  A    between atoms: _480  and  _481
REMARK  186  A    between atoms: _480  and  _483
REMARK  187  A    between atoms: _483  and  _484
REMARK  188  A    between atoms: _485  and  _487
REMARK  189  A    between atoms: _487  and  _488
REMARK  190  A    between atoms: _491  and  _493
REMARK  191  A    between atoms: _493  and  _494
REMARK  192  A    between atoms: _493  and  _496
REMARK  193  A    between atoms: _496  and  _497
REMARK  194  A    between atoms: _500  and  _502
REMARK  195  A    between atoms: _502  and  _503
REMARK  196  A    between atoms: _502  and  _505
REMARK  197  A    between atoms: _505  and  _506
REMARK  198  A    between atoms: _511  and  _512
REMARK  199  A    between atoms: _514  and  _516
REMARK  200  A    between atoms: _516  and  _517
REMARK  201  A    between atoms: _516  and  _519
REMARK  202  A    between atoms: _519  and  _520
REMARK  203  A    between atoms: _522  and  _524
REMARK  204  A    between atoms: _524  and  _525
REMARK  205  A    between atoms: _524  and  _527
REMARK  206  A    between atoms: _527  and  _528
REMARK  207  A    between atoms: _534  and  _536
REMARK  208  A    between atoms: _536  and  _537
REMARK  209  A    between atoms: _536  and  _539
REMARK  210  A    between atoms: _539  and  _540
REMARK  211  A    between atoms: _543  and  _545
REMARK  212  A    between atoms: _545  and  _546
REMARK  213  A    between atoms: _545  and  _548
REMARK  214  A    between atoms: _548  and  _549
REMARK  215  A    between atoms: _551  and  _553
REMARK  216  A    between atoms: _553  and  _554
REMARK  217  A    between atoms: _553  and  _556
REMARK  218  A    between atoms: _556  and  _557
REMARK  219  A    between atoms: _562  and  _564
REMARK  220  A    between atoms: _564  and  _565
REMARK  221  A    between atoms: _564  and  _567
REMARK  222  A    between atoms: _567  and  _568
REMARK  223  A    between atoms: _573  and  _575
REMARK  224  A    between atoms: _575  and  _576
REMARK  225  A    between atoms: _575  and  _578
REMARK  226  A    between atoms: _578  and  _579
REMARK  227  A    between atoms: _582  and  _584
REMARK  228  A    between atoms: _584  and  _585
REMARK  229  A    between atoms: _588  and  _590
REMARK  230  A    between atoms: _590  and  _591
REMARK  231  A    between atoms: _590  and  _593
REMARK  232  A    between atoms: _593  and  _594
REMARK  233  A    between atoms: _599  and  _600
REMARK  234  A    between atoms: _602  and  _604
REMARK  235  A    between atoms: _604  and  _605
REMARK  236  A    between atoms: _604  and  _607
REMARK  237  A    between atoms: _607  and  _608
REMARK  238  A    between atoms: _613  and  _614
REMARK  239  A    between atoms: _616  and  _618
REMARK  240  A    between atoms: _618  and  _619
REMARK  241  A    between atoms: _618  and  _621
REMARK  242  A    between atoms: _624  and  _626
REMARK  243  A    between atoms: _626  and  _627
REMARK  244  A    between atoms: _626  and  _629
REMARK  245  A    between atoms: _629  and  _630
REMARK  246  A    between atoms: _635  and  _637
REMARK  247  A    between atoms: _637  and  _638
REMARK  248  A    between atoms: _641  and  _643
REMARK  249  A    between atoms: _643  and  _644
REMARK  250  A    between atoms: _643  and  _646
REMARK  251  A    between atoms: _646  and  _647
REMARK  252  A    between atoms: _647  and  _648
REMARK  253  A    between atoms: _648  and  _649
REMARK  254  A    between atoms: _658  and  _660
REMARK  255  A    between atoms: _660  and  _661
REMARK  256  A    between atoms: _660  and  _663
REMARK  257  A    between atoms: _663  and  _664
REMARK  258  A    between atoms: _667  and  _669
REMARK  259  A    between atoms: _669  and  _670
REMARK  260  A    between atoms: _669  and  _672
REMARK  261  A    between atoms: _672  and  _673
REMARK  262  A    between atoms: _676  and  _678
REMARK  263  A    between atoms: _678  and  _679
REMARK  264  A    between atoms: _678  and  _681
REMARK  265  A    between atoms: _681  and  _682
REMARK  266  A    between atoms: _687  and  _689
REMARK  267  A    between atoms: _689  and  _690
REMARK  268  A    between atoms: _689  and  _692
REMARK  269  A    between atoms: _692  and  _693
REMARK                            x       y       z     vdW  Elec       q    Type
REMARK                         _______ _______ _______ _____ _____    ______ ____
ROOT
ATOM      1  O   HOH     1      34.138  37.417  17.589  0.00  0.00    +0.000 OA
ENDROOT
TORSDOF 0
REMARK  Name = ../refined-set-2016/1b7h/1b7h_pocket.pdb
REMARK  269 active torsions:
REMARK  status: ('A' for Active; 'I' for Inactive)
REMARK    1  A    between atoms: _1  and  _3
REMARK    2  A    between atoms: _3  and  _4
REMARK    3  A    between atoms: _6  and  _8
REMARK    4  A    between atoms: _8  and  _9
REMARK    5  A    between atoms: _8  and  _11
REMARK    6  A    between atoms: _11  and  _12
REMARK    7  A    between atoms: _14  and  _16
REMARK    8  A    between atoms: _16  and  _17
REMARK    9  A    between atoms: _16  and  _19
REMARK   10  A    between atoms: _19  and  _20
REMARK   11  A    between atoms: _20  and  _21
REMARK   12  A    between atoms: _26  and  _28
REMARK   13  A    between atoms: _28  and  _29
REMARK   14  A    between atoms: _28  and  _31
REMARK   15  A    between atoms: _31  and  _32
REMARK   16  A    between atoms: _35  and  _37
REMARK   17  A    between atoms: _37  and  _38
REMARK   18  A    between atoms: _37  and  _40
REMARK   19  A    between atoms: _40  and  _41
REMARK   20  A    between atoms: _41  and  _42
REMARK   21  A    between atoms: _45  and  _47
REMARK   22  A    between atoms: _47  and  _48
REMARK   23  A    between atoms: _50  and  _52
REMARK   24  A    between atoms: _52  and  _53
REMARK   25  A    between atoms: _52  and  _55
REMARK   26  A    between atoms: _59  and  _60
REMARK   27  A    between atoms: _65  and  _67
REMARK   28  A    between atoms: _67  and  _68
REMARK   29  A    between atoms: _67  and  _70
REMARK   30  A    between atoms: _70  and  _71
REMARK   31  A    between atoms: _71  and  _72
REMARK   32  A    between atoms: _75  and  _77
REMARK   33  A    between atoms: _77  and  _78
REMARK   34  A    between atoms: _77  and  _80
REMARK   35  A    between atoms: _80  and  _81
REMARK   36  A    between atoms: _83  and  _85
REMARK   37  A    between atoms: _85  and  _86
REMARK   38  A    between atoms: _85  and  _88
REMARK   39  A    between atoms: _88  and  _89
REMARK   40  A    between atoms: _94  and  _96
REMARK   41  A    between atoms: _96  and  _97
REMARK   42  A    between atoms: _96  and  _99
REMARK   43  A    between atoms: _99  and  _100
REMARK   44  A    between atoms: _100  and  _101
REMARK   45  A    between atoms: _101  and  _102
REMARK   46  A    between atoms: _112  and  _113
REMARK   47  A    between atoms: _118  and  _120
REMARK   48  A    between atoms: _120  and  _121
REMARK   49  A    between atoms: _120  and  _123
REMARK   50  A    between atoms: _123  and  _124
REMARK   51  A    between atoms: _129  and  _130
REMARK   52  A    between atoms: _132  and  _134
REMARK   53  A    between atoms: _134  and  _135
REMARK   54  A    between atoms: _134  and  _137
REMARK   55  A    between atoms: _137  and  _138
REMARK   56  A    between atoms: _143  and  _144
REMARK   57  A    between atoms: _146  and  _148
REMARK   58  A    between atoms: _148  and  _149
REMARK   59  A    between atoms: _148  and  _151
REMARK   60  A    between atoms: _154  and  _156
REMARK   61  A    between atoms: _156  and  _157
REMARK   62  A    between atoms: _156  and  _159
REMARK   63  A    between atoms: _159  and  _160
REMARK   64  A    between atoms: _166  and  _167
REMARK   65  A    between atoms: _172  and  _174
REMARK   66  A    between atoms: _174  and  _175
REMARK   67  A    between atoms: _174  and  _177
REMARK   68  A    between atoms: _177  and  _178
REMARK   69  A    between atoms: _180  and  _182
REMARK   70  A    between atoms: _182  and  _183
REMARK   71  A    between atoms: _182  and  _185
REMARK   72  A    between atoms: _185  and  _186
REMARK   73  A    between atoms: _191  and  _192
REMARK   74  A    between atoms: _194  and  _196
REMARK   75  A    between atoms: _196  and  _197
REMARK   76  A    between atoms: _196  and  _199
REMARK   77  A    between atoms: _199  and  _200
REMARK   78  A    between atoms: _205  and  _207
REMARK   79  A    between atoms: _207  and  _208
REMARK   80  A    between atoms: _207  and  _210
REMARK   81  A    between atoms: _210  and  _211
REMARK   82  A    between atoms: _216  and  _218
REMARK   83  A    between atoms: _218  and  _219
REMARK   84  A    between atoms: _218  and  _221
REMARK   85  A    between atoms: _221  and  _222
REMARK   86  A    between atoms: _222  and  _223
REMARK   87  A    between atoms: _225  and  _227
REMARK   88  A    between atoms: _227  and  _228
REMARK   89  A    between atoms: _227  and  _230
REMARK   90  A    between atoms: _230  and  _231
REMARK   91  A    between atoms: _236  and  _237
REMARK   92  A    between atoms: _239  and  _241
REMARK   93  A    between atoms: _241  and  _242
REMARK   94  A    between atoms: _241  and  _244
REMARK   95  A    between atoms: _244  and  _245
REMARK   96  A    between atoms: _248  and  _250
REMARK   97  A    between atoms: _250  and  _251
REMARK   98  A    between atoms: _250  and  _253
REMARK   99  A    between atoms: _253  and  _254
REMARK  100  A    between atoms: _254  and  _484
REMARK  101  A    between atoms: _255  and  _257
REMARK  102  A    between atoms: _257  and  _258
REMARK  103  A    between atoms: _257  and  _260
REMARK  104  A    between atoms: _260  and  _261
REMARK  105  A    between atoms: _264  and  _266
REMARK  106  A    between atoms: _266  and  _267
REMARK  107  A    between atoms: _266  and  _269
REMARK  108  A    between atoms: _269  and  _270
REMARK  109  A    between atoms: _275  and  _276
REMARK  110  A    between atoms: _278  and  _280
REMARK  111  A    between atoms: _280  and  _281
REMARK  112  A    between atoms: _280  and  _283
REMARK  113  A    between atoms: _283  and  _284
REMARK  114  A    between atoms: _289  and  _290
REMARK  115  A    between atoms: _292  and  _294
REMARK  116  A    between atoms: _294  and  _295
REMARK  117  A    between atoms: _294  and  _297
REMARK  118  A    between atoms: _297  and  _298
REMARK  119  A    between atoms: _298  and  _299
REMARK  120  A    between atoms: _302  and  _304
REMARK  121  A    between atoms: _304  and  _305
REMARK  122  A    between atoms: _304  and  _307
REMARK  123  A    between atoms: _307  and  _308
REMARK  124  A    between atoms: _308  and  _309
REMARK  125  A    between atoms: _309  and  _310
REMARK  126  A    between atoms: _310  and  _311
REMARK  127  A    between atoms: _315  and  _317
REMARK  128  A    between atoms: _317  and  _318
REMARK  129  A    between atoms: _317  and  _320
REMARK  130  A    between atoms: _320  and  _321
REMARK  131  A    between atoms: _326  and  _327
REMARK  132  A    between atoms: _329  and  _331
REMARK  133  A    between atoms: _331  and  _332
REMARK  134  A    between atoms: _331  and  _334
REMARK  135  A    between atoms: _334  and  _335
REMARK  136  A    between atoms: _340  and  _342
REMARK  137  A    between atoms: _342  and  _343
REMARK  138  A    between atoms: _342  and  _345
REMARK  139  A    between atoms: _345  and  _346
REMARK  140  A    between atoms: _349  and  _351
REMARK  141  A    between atoms: _351  and  _352
REMARK  142  A    between atoms: _351  and  _354
REMARK  143  A    between atoms: _354  and  _355
REMARK  144  A    between atoms: _360  and  _362
REMARK  145  A    between atoms: _362  and  _363
REMARK  146  A    between atoms: _362  and  _365
REMARK  147  A    between atoms: _365  and  _366
REMARK  148  A    between atoms: _376  and  _378
REMARK  149  A    between atoms: _378  and  _379
REMARK  150  A    between atoms: _378  and  _381
REMARK  151  A    between atoms: _381  and  _382
REMARK  152  A    between atoms: _388  and  _390
REMARK  153  A    between atoms: _390  and  _391
REMARK  154  A    between atoms: _390  and  _393
REMARK  155  A    between atoms: _393  and  _394
REMARK  156  A    between atoms: _397  and  _399
REMARK  157  A    between atoms: _399  and  _400
REMARK  158  A    between atoms: _399  and  _402
REMARK  159  A    between atoms: _402  and  _403
REMARK  160  A    between atoms: _406  and  _408
REMARK  161  A    between atoms: _408  and  _409
REMARK  162  A    between atoms: _408  and  _411
REMARK  163  A    between atoms: _411  and  _412
REMARK  164  A    between atoms: _412  and  _413
REMARK  165  A    between atoms: _413  and  _414
REMARK  166  A    between atoms: _423  and  _425
REMARK  167  A    between atoms: _425  and  _426
REMARK  168  A    between atoms: _425  and  _428
REMARK  169  A    between atoms: _428  and  _429
REMARK  170  A    between atoms: _434  and  _436
REMARK  171  A    between atoms: _436  and  _437
REMARK  172  A    between atoms: _436  and  _439
REMARK  173  A    between atoms: _439  and  _440
REMARK  174  A    between atoms: _440  and  _441
REMARK  175  A    between atoms: _441  and  _442
REMARK  176  A    between atoms: _451  and  _453
REMARK  177  A    between atoms: _453  and  _454
REMARK  178  A    between atoms: _457  and  _459
REMARK  179  A    between atoms: _459  and  _460
REMARK  180  A    between atoms: _462  and  _464
REMARK  181  A    between atoms: _464  and  _465
REMARK  182  A    between atoms: _464  and  _467
REMARK  183  A    between atoms: _467  and  _468
REMARK  184  A    between atoms: _478  and  _480
REMARK  185  A    between atoms: _480  and  _481
REMARK  186  A    between atoms: _480  and  _483
REMARK  187  A    between atoms: _483  and  _484
REMARK  188  A    between atoms: _485  and  _487
REMARK  189  A    between atoms: _487  and  _488
REMARK  190  A    between atoms: _491  and  _493
REMARK  191  A    between atoms: _493  and  _494
REMARK  192  A    between atoms: _493  and  _496
REMARK  193  A    between atoms: _496  and  _497
REMARK  194  A    between atoms: _500  and  _502
REMARK  195  A    between atoms: _502  and  _503
REMARK  196  A    between atoms: _502  and  _505
REMARK  197  A    between atoms: _505  and  _506
REMARK  198  A    between atoms: _511  and  _512
REMARK  199  A    between atoms: _514  and  _516
REMARK  200  A    between atoms: _516  and  _517
REMARK  201  A    between atoms: _516  and  _519
REMARK  202  A    between atoms: _519  and  _520
REMARK  203  A    between atoms: _522  and  _524
REMARK  204  A    between atoms: _524  and  _525
REMARK  205  A    between atoms: _524  and  _527
REMARK  206  A    between atoms: _527  and  _528
REMARK  207  A    between atoms: _534  and  _536
REMARK  208  A    between atoms: _536  and  _537
REMARK  209  A    between atoms: _536  and  _539
REMARK  210  A    between atoms: _539  and  _540
REMARK  211  A    between atoms: _543  and  _545
REMARK  212  A    between atoms: _545  and  _546
REMARK  213  A    between atoms: _545  and  _548
REMARK  214  A    between atoms: _548  and  _549
REMARK  215  A    between atoms: _551  and  _553
REMARK  216  A    between atoms: _553  and  _554
REMARK  217  A    between atoms: _553  and  _556
REMARK  218  A    between atoms: _556  and  _557
REMARK  219  A    between atoms: _562  and  _564
REMARK  220  A    between atoms: _564  and  _565
REMARK  221  A    between atoms: _564  and  _567
REMARK  222  A    between atoms: _567  and  _568
REMARK  223  A    between atoms: _573  and  _575
REMARK  224  A    between atoms: _575  and  _576
REMARK  225  A    between atoms: _575  and  _578
REMARK  226  A    between atoms: _578  and  _579
REMARK  227  A    between atoms: _582  and  _584
REMARK  228  A    between atoms: _584  and  _585
REMARK  229  A    between atoms: _588  and  _590
REMARK  230  A    between atoms: _590  and  _591
REMARK  231  A    between atoms: _590  and  _593
REMARK  232  A    between atoms: _593  and  _594
REMARK  233  A    between atoms: _599  and  _600
REMARK  234  A    between atoms: _602  and  _604
REMARK  235  A    between atoms: _604  and  _605
REMARK  236  A    between atoms: _604  and  _607
REMARK  237  A    between atoms: _607  and  _608
REMARK  238  A    between atoms: _613  and  _614
REMARK  239  A    between atoms: _616  and  _618
REMARK  240  A    between atoms: _618  and  _619
REMARK  241  A    between atoms: _618  and  _621
REMARK  242  A    between atoms: _624  and  _626
REMARK  243  A    between atoms: _626  and  _627
REMARK  244  A    between atoms: _626  and  _629
REMARK  245  A    between atoms: _629  and  _630
REMARK  246  A    between atoms: _635  and  _637
REMARK  247  A    between atoms: _637  and  _638
REMARK  248  A    between atoms: _641  and  _643
REMARK  249  A    between atoms: _643  and  _644
REMARK  250  A    between atoms: _643  and  _646
REMARK  251  A    between atoms: _646  and  _647
REMARK  252  A    between atoms: _647  and  _648
REMARK  253  A    between atoms: _648  and  _649
REMARK  254  A    between atoms: _658  and  _660
REMARK  255  A    between atoms: _660  and  _661
REMARK  256  A    between atoms: _660  and  _663
REMARK  257  A    between atoms: _663  and  _664
REMARK  258  A    between atoms: _667  and  _669
REMARK  259  A    between atoms: _669  and  _670
REMARK  260  A    between atoms: _669  and  _672
REMARK  261  A    between atoms: _672  and  _673
REMARK  262  A    between atoms: _676  and  _678
REMARK  263  A    between atoms: _678  and  _679
REMARK  264  A    between atoms: _678  and  _681
REMARK  265  A    between atoms: _681  and  _682
REMARK  266  A    between atoms: _687  and  _689
REMARK  267  A    between atoms: _689  and  _690
REMARK  268  A    between atoms: _689  and  _692
REMARK  269  A    between atoms: _692  and  _693
REMARK                            x       y       z     vdW  Elec       q    Type
REMARK                         _______ _______ _______ _____ _____    ______ ____
ROOT
ATOM      1  O   HOH     1      46.501  31.819  32.401  0.00  0.00    +0.000 OA
ENDROOT
TORSDOF 0
REMARK  Name = ../refined-set-2016/1b7h/1b7h_pocket.pdb
REMARK  269 active torsions:
REMARK  status: ('A' for Active; 'I' for Inactive)
REMARK    1  A    between atoms: _1  and  _3
REMARK    2  A    between atoms: _3  and  _4
REMARK    3  A    between atoms: _6  and  _8
REMARK    4  A    between atoms: _8  and  _9
REMARK    5  A    between atoms: _8  and  _11
REMARK    6  A    between atoms: _11  and  _12
REMARK    7  A    between atoms: _14  and  _16
REMARK    8  A    between atoms: _16  and  _17
REMARK    9  A    between atoms: _16  and  _19
REMARK   10  A    between atoms: _19  and  _20
REMARK   11  A    between atoms: _20  and  _21
REMARK   12  A    between atoms: _26  and  _28
REMARK   13  A    between atoms: _28  and  _29
REMARK   14  A    between atoms: _28  and  _31
REMARK   15  A    between atoms: _31  and  _32
REMARK   16  A    between atoms: _35  and  _37
REMARK   17  A    between atoms: _37  and  _38
REMARK   18  A    between atoms: _37  and  _40
REMARK   19  A    between atoms: _40  and  _41
REMARK   20  A    between atoms: _41  and  _42
REMARK   21  A    between atoms: _45  and  _47
REMARK   22  A    between atoms: _47  and  _48
REMARK   23  A    between atoms: _50  and  _52
REMARK   24  A    between atoms: _52  and  _53
REMARK   25  A    between atoms: _52  and  _55
REMARK   26  A    between atoms: _59  and  _60
REMARK   27  A    between atoms: _65  and  _67
REMARK   28  A    between atoms: _67  and  _68
REMARK   29  A    between atoms: _67  and  _70
REMARK   30  A    between atoms: _70  and  _71
REMARK   31  A    between atoms: _71  and  _72
REMARK   32  A    between atoms: _75  and  _77
REMARK   33  A    between atoms: _77  and  _78
REMARK   34  A    between atoms: _77  and  _80
REMARK   35  A    between atoms: _80  and  _81
REMARK   36  A    between atoms: _83  and  _85
REMARK   37  A    between atoms: _85  and  _86
REMARK   38  A    between atoms: _85  and  _88
REMARK   39  A    between atoms: _88  and  _89
REMARK   40  A    between atoms: _94  and  _96
REMARK   41  A    between atoms: _96  and  _97
REMARK   42  A    between atoms: _96  and  _99
REMARK   43  A    between atoms: _99  and  _100
REMARK   44  A    between atoms: _100  and  _101
REMARK   45  A    between atoms: _101  and  _102
REMARK   46  A    between atoms: _112  and  _113
REMARK   47  A    between atoms: _118  and  _120
REMARK   48  A    between atoms: _120  and  _121
REMARK   49  A    between atoms: _120  and  _123
REMARK   50  A    between atoms: _123  and  _124
REMARK   51  A    between atoms: _129  and  _130
REMARK   52  A    between atoms: _132  and  _134
REMARK   53  A    between atoms: _134  and  _135
REMARK   54  A    between atoms: _134  and  _137
REMARK   55  A    between atoms: _137  and  _138
REMARK   56  A    between atoms: _143  and  _144
REMARK   57  A    between atoms: _146  and  _148
REMARK   58  A    between atoms: _148  and  _149
REMARK   59  A    between atoms: _148  and  _151
REMARK   60  A    between atoms: _154  and  _156
REMARK   61  A    between atoms: _156  and  _157
REMARK   62  A    between atoms: _156  and  _159
REMARK   63  A    between atoms: _159  and  _160
REMARK   64  A    between atoms: _166  and  _167
REMARK   65  A    between atoms: _172  and  _174
REMARK   66  A    between atoms: _174  and  _175
REMARK   67  A    between atoms: _174  and  _177
REMARK   68  A    between atoms: _177  and  _178
REMARK   69  A    between atoms: _180  and  _182
REMARK   70  A    between atoms: _182  and  _183
REMARK   71  A    between atoms: _182  and  _185
REMARK   72  A    between atoms: _185  and  _186
REMARK   73  A    between atoms: _191  and  _192
REMARK   74  A    between atoms: _194  and  _196
REMARK   75  A    between atoms: _196  and  _197
REMARK   76  A    between atoms: _196  and  _199
REMARK   77  A    between atoms: _199  and  _200
REMARK   78  A    between atoms: _205  and  _207
REMARK   79  A    between atoms: _207  and  _208
REMARK   80  A    between atoms: _207  and  _210
REMARK   81  A    between atoms: _210  and  _211
REMARK   82  A    between atoms: _216  and  _218
REMARK   83  A    between atoms: _218  and  _219
REMARK   84  A    between atoms: _218  and  _221
REMARK   85  A    between atoms: _221  and  _222
REMARK   86  A    between atoms: _222  and  _223
REMARK   87  A    between atoms: _225  and  _227
REMARK   88  A    between atoms: _227  and  _228
REMARK   89  A    between atoms: _227  and  _230
REMARK   90  A    between atoms: _230  and  _231
REMARK   91  A    between atoms: _236  and  _237
REMARK   92  A    between atoms: _239  and  _241
REMARK   93  A    between atoms: _241  and  _242
REMARK   94  A    between atoms: _241  and  _244
REMARK   95  A    between atoms: _244  and  _245
REMARK   96  A    between atoms: _248  and  _250
REMARK   97  A    between atoms: _250  and  _251
REMARK   98  A    between atoms: _250  and  _253
REMARK   99  A    between atoms: _253  and  _254
REMARK  100  A    between atoms: _254  and  _484
REMARK  101  A    between atoms: _255  and  _257
REMARK  102  A    between atoms: _257  and  _258
REMARK  103  A    between atoms: _257  and  _260
REMARK  104  A    between atoms: _260  and  _261
REMARK  105  A    between atoms: _264  and  _266
REMARK  106  A    between atoms: _266  and  _267
REMARK  107  A    between atoms: _266  and  _269
REMARK  108  A    between atoms: _269  and  _270
REMARK  109  A    between atoms: _275  and  _276
REMARK  110  A    between atoms: _278  and  _280
REMARK  111  A    between atoms: _280  and  _281
REMARK  112  A    between atoms: _280  and  _283
REMARK  113  A    between atoms: _283  and  _284
REMARK  114  A    between atoms: _289  and  _290
REMARK  115  A    between atoms: _292  and  _294
REMARK  116  A    between atoms: _294  and  _295
REMARK  117  A    between atoms: _294  and  _297
REMARK  118  A    between atoms: _297  and  _298
REMARK  119  A    between atoms: _298  and  _299
REMARK  120  A    between atoms: _302  and  _304
REMARK  121  A    between atoms: _304  and  _305
REMARK  122  A    between atoms: _304  and  _307
REMARK  123  A    between atoms: _307  and  _308
REMARK  124  A    between atoms: _308  and  _309
REMARK  125  A    between atoms: _309  and  _310
REMARK  126  A    between atoms: _310  and  _311
REMARK  127  A    between atoms: _315  and  _317
REMARK  128  A    between atoms: _317  and  _318
REMARK  129  A    between atoms: _317  and  _320
REMARK  130  A    between atoms: _320  and  _321
REMARK  131  A    between atoms: _326  and  _327
REMARK  132  A    between atoms: _329  and  _331
REMARK  133  A    between atoms: _331  and  _332
REMARK  134  A    between atoms: _331  and  _334
REMARK  135  A    between atoms: _334  and  _335
REMARK  136  A    between atoms: _340  and  _342
REMARK  137  A    between atoms: _342  and  _343
REMARK  138  A    between atoms: _342  and  _345
REMARK  139  A    between atoms: _345  and  _346
REMARK  140  A    between atoms: _349  and  _351
REMARK  141  A    between atoms: _351  and  _352
REMARK  142  A    between atoms: _351  and  _354
REMARK  143  A    between atoms: _354  and  _355
REMARK  144  A    between atoms: _360  and  _362
REMARK  145  A    between atoms: _362  and  _363
REMARK  146  A    between atoms: _362  and  _365
REMARK  147  A    between atoms: _365  and  _366
REMARK  148  A    between atoms: _376  and  _378
REMARK  149  A    between atoms: _378  and  _379
REMARK  150  A    between atoms: _378  and  _381
REMARK  151  A    between atoms: _381  and  _382
REMARK  152  A    between atoms: _388  and  _390
REMARK  153  A    between atoms: _390  and  _391
REMARK  154  A    between atoms: _390  and  _393
REMARK  155  A    between atoms: _393  and  _394
REMARK  156  A    between atoms: _397  and  _399
REMARK  157  A    between atoms: _399  and  _400
REMARK  158  A    between atoms: _399  and  _402
REMARK  159  A    between atoms: _402  and  _403
REMARK  160  A    between atoms: _406  and  _408
REMARK  161  A    between atoms: _408  and  _409
REMARK  162  A    between atoms: _408  and  _411
REMARK  163  A    between atoms: _411  and  _412
REMARK  164  A    between atoms: _412  and  _413
REMARK  165  A    between atoms: _413  and  _414
REMARK  166  A    between atoms: _423  and  _425
REMARK  167  A    between atoms: _425  and  _426
REMARK  168  A    between atoms: _425  and  _428
REMARK  169  A    between atoms: _428  and  _429
REMARK  170  A    between atoms: _434  and  _436
REMARK  171  A    between atoms: _436  and  _437
REMARK  172  A    between atoms: _436  and  _439
REMARK  173  A    between atoms: _439  and  _440
REMARK  174  A    between atoms: _440  and  _441
REMARK  175  A    between atoms: _441  and  _442
REMARK  176  A    between atoms: _451  and  _453
REMARK  177  A    between atoms: _453  and  _454
REMARK  178  A    between atoms: _457  and  _459
REMARK  179  A    between atoms: _459  and  _460
REMARK  180  A    between atoms: _462  and  _464
REMARK  181  A    between atoms: _464  and  _465
REMARK  182  A    between atoms: _464  and  _467
REMARK  183  A    between atoms: _467  and  _468
REMARK  184  A    between atoms: _478  and  _480
REMARK  185  A    between atoms: _480  and  _481
REMARK  186  A    between atoms: _480  and  _483
REMARK  187  A    between atoms: _483  and  _484
REMARK  188  A    between atoms: _485  and  _487
REMARK  189  A    between atoms: _487  and  _488
REMARK  190  A    between atoms: _491  and  _493
REMARK  191  A    between atoms: _493  and  _494
REMARK  192  A    between atoms: _493  and  _496
REMARK  193  A    between atoms: _496  and  _497
REMARK  194  A    between atoms: _500  and  _502
REMARK  195  A    between atoms: _502  and  _503
REMARK  196  A    between atoms: _502  and  _505
REMARK  197  A    between atoms: _505  and  _506
REMARK  198  A    between atoms: _511  and  _512
REMARK  199  A    between atoms: _514  and  _516
REMARK  200  A    between atoms: _516  and  _517
REMARK  201  A    between atoms: _516  and  _519
REMARK  202  A    between atoms: _519  and  _520
REMARK  203  A    between atoms: _522  and  _524
REMARK  204  A    between atoms: _524  and  _525
REMARK  205  A    between atoms: _524  and  _527
REMARK  206  A    between atoms: _527  and  _528
REMARK  207  A    between atoms: _534  and  _536
REMARK  208  A    between atoms: _536  and  _537
REMARK  209  A    between atoms: _536  and  _539
REMARK  210  A    between atoms: _539  and  _540
REMARK  211  A    between atoms: _543  and  _545
REMARK  212  A    between atoms: _545  and  _546
REMARK  213  A    between atoms: _545  and  _548
REMARK  214  A    between atoms: _548  and  _549
REMARK  215  A    between atoms: _551  and  _553
REMARK  216  A    between atoms: _553  and  _554
REMARK  217  A    between atoms: _553  and  _556
REMARK  218  A    between atoms: _556  and  _557
REMARK  219  A    between atoms: _562  and  _564
REMARK  220  A    between atoms: _564  and  _565
REMARK  221  A    between atoms: _564  and  _567
REMARK  222  A    between atoms: _567  and  _568
REMARK  223  A    between atoms: _573  and  _575
REMARK  224  A    between atoms: _575  and  _576
REMARK  225  A    between atoms: _575  and  _578
REMARK  226  A    between atoms: _578  and  _579
REMARK  227  A    between atoms: _582  and  _584
REMARK  228  A    between atoms: _584  and  _585
REMARK  229  A    between atoms: _588  and  _590
REMARK  230  A    between atoms: _590  and  _591
REMARK  231  A    between atoms: _590  and  _593
REMARK  232  A    between atoms: _593  and  _594
REMARK  233  A    between atoms: _599  and  _600
REMARK  234  A    between atoms: _602  and  _604
REMARK  235  A    between atoms: _604  and  _605
REMARK  236  A    between atoms: _604  and  _607
REMARK  237  A    between atoms: _607  and  _608
REMARK  238  A    between atoms: _613  and  _614
REMARK  239  A    between atoms: _616  and  _618
REMARK  240  A    between atoms: _618  and  _619
REMARK  241  A    between atoms: _618  and  _621
REMARK  242  A    between atoms: _624  and  _626
REMARK  243  A    between atoms: _626  and  _627
REMARK  244  A    between atoms: _626  and  _629
REMARK  245  A    between atoms: _629  and  _630
REMARK  246  A    between atoms: _635  and  _637
REMARK  247  A    between atoms: _637  and  _638
REMARK  248  A    between atoms: _641  and  _643
REMARK  249  A    between atoms: _643  and  _644
REMARK  250  A    between atoms: _643  and  _646
REMARK  251  A    between atoms: _646  and  _647
REMARK  252  A    between atoms: _647  and  _648
REMARK  253  A    between atoms: _648  and  _649
REMARK  254  A    between atoms: _658  and  _660
REMARK  255  A    between atoms: _660  and  _661
REMARK  256  A    between atoms: _660  and  _663
REMARK  257  A    between atoms: _663  and  _664
REMARK  258  A    between atoms: _667  and  _669
REMARK  259  A    between atoms: _669  and  _670
REMARK  260  A    between atoms: _669  and  _672
REMARK  261  A    between atoms: _672  and  _673
REMARK  262  A    between atoms: _676  and  _678
REMARK  263  A    between atoms: _678  and  _679
REMARK  264  A    between atoms: _678  and  _681
REMARK  265  A    between atoms: _681  and  _682
REMARK  266  A    between atoms: _687  and  _689
REMARK  267  A    between atoms: _689  and  _690
REMARK  268  A    between atoms: _689  and  _692
REMARK  269  A    between atoms: _692  and  _693
REMARK                            x       y       z     vdW  Elec       q    Type
REMARK                         _______ _______ _______ _____ _____    ______ ____
ROOT
ATOM      1  O   HOH     1      42.260  34.803  29.508  0.00  0.00    +0.000 OA
ENDROOT
TORSDOF 0
REMARK  Name = ../refined-set-2016/1b7h/1b7h_pocket.pdb
REMARK  269 active torsions:
REMARK  status: ('A' for Active; 'I' for Inactive)
REMARK    1  A    between atoms: _1  and  _3
REMARK    2  A    between atoms: _3  and  _4
REMARK    3  A    between atoms: _6  and  _8
REMARK    4  A    between atoms: _8  and  _9
REMARK    5  A    between atoms: _8  and  _11
REMARK    6  A    between atoms: _11  and  _12
REMARK    7  A    between atoms: _14  and  _16
REMARK    8  A    between atoms: _16  and  _17
REMARK    9  A    between atoms: _16  and  _19
REMARK   10  A    between atoms: _19  and  _20
REMARK   11  A    between atoms: _20  and  _21
REMARK   12  A    between atoms: _26  and  _28
REMARK   13  A    between atoms: _28  and  _29
REMARK   14  A    between atoms: _28  and  _31
REMARK   15  A    between atoms: _31  and  _32
REMARK   16  A    between atoms: _35  and  _37
REMARK   17  A    between atoms: _37  and  _38
REMARK   18  A    between atoms: _37  and  _40
REMARK   19  A    between atoms: _40  and  _41
REMARK   20  A    between atoms: _41  and  _42
REMARK   21  A    between atoms: _45  and  _47
REMARK   22  A    between atoms: _47  and  _48
REMARK   23  A    between atoms: _50  and  _52
REMARK   24  A    between atoms: _52  and  _53
REMARK   25  A    between atoms: _52  and  _55
REMARK   26  A    between atoms: _59  and  _60
REMARK   27  A    between atoms: _65  and  _67
REMARK   28  A    between atoms: _67  and  _68
REMARK   29  A    between atoms: _67  and  _70
REMARK   30  A    between atoms: _70  and  _71
REMARK   31  A    between atoms: _71  and  _72
REMARK   32  A    between atoms: _75  and  _77
REMARK   33  A    between atoms: _77  and  _78
REMARK   34  A    between atoms: _77  and  _80
REMARK   35  A    between atoms: _80  and  _81
REMARK   36  A    between atoms: _83  and  _85
REMARK   37  A    between atoms: _85  and  _86
REMARK   38  A    between atoms: _85  and  _88
REMARK   39  A    between atoms: _88  and  _89
REMARK   40  A    between atoms: _94  and  _96
REMARK   41  A    between atoms: _96  and  _97
REMARK   42  A    between atoms: _96  and  _99
REMARK   43  A    between atoms: _99  and  _100
REMARK   44  A    between atoms: _100  and  _101
REMARK   45  A    between atoms: _101  and  _102
REMARK   46  A    between atoms: _112  and  _113
REMARK   47  A    between atoms: _118  and  _120
REMARK   48  A    between atoms: _120  and  _121
REMARK   49  A    between atoms: _120  and  _123
REMARK   50  A    between atoms: _123  and  _124
REMARK   51  A    between atoms: _129  and  _130
REMARK   52  A    between atoms: _132  and  _134
REMARK   53  A    between atoms: _134  and  _135
REMARK   54  A    between atoms: _134  and  _137
REMARK   55  A    between atoms: _137  and  _138
REMARK   56  A    between atoms: _143  and  _144
REMARK   57  A    between atoms: _146  and  _148
REMARK   58  A    between atoms: _148  and  _149
REMARK   59  A    between atoms: _148  and  _151
REMARK   60  A    between atoms: _154  and  _156
REMARK   61  A    between atoms: _156  and  _157
REMARK   62  A    between atoms: _156  and  _159
REMARK   63  A    between atoms: _159  and  _160
REMARK   64  A    between atoms: _166  and  _167
REMARK   65  A    between atoms: _172  and  _174
REMARK   66  A    between atoms: _174  and  _175
REMARK   67  A    between atoms: _174  and  _177
REMARK   68  A    between atoms: _177  and  _178
REMARK   69  A    between atoms: _180  and  _182
REMARK   70  A    between atoms: _182  and  _183
REMARK   71  A    between atoms: _182  and  _185
REMARK   72  A    between atoms: _185  and  _186
REMARK   73  A    between atoms: _191  and  _192
REMARK   74  A    between atoms: _194  and  _196
REMARK   75  A    between atoms: _196  and  _197
REMARK   76  A    between atoms: _196  and  _199
REMARK   77  A    between atoms: _199  and  _200
REMARK   78  A    between atoms: _205  and  _207
REMARK   79  A    between atoms: _207  and  _208
REMARK   80  A    between atoms: _207  and  _210
REMARK   81  A    between atoms: _210  and  _211
REMARK   82  A    between atoms: _216  and  _218
REMARK   83  A    between atoms: _218  and  _219
REMARK   84  A    between atoms: _218  and  _221
REMARK   85  A    between atoms: _221  and  _222
REMARK   86  A    between atoms: _222  and  _223
REMARK   87  A    between atoms: _225  and  _227
REMARK   88  A    between atoms: _227  and  _228
REMARK   89  A    between atoms: _227  and  _230
REMARK   90  A    between atoms: _230  and  _231
REMARK   91  A    between atoms: _236  and  _237
REMARK   92  A    between atoms: _239  and  _241
REMARK   93  A    between atoms: _241  and  _242
REMARK   94  A    between atoms: _241  and  _244
REMARK   95  A    between atoms: _244  and  _245
REMARK   96  A    between atoms: _248  and  _250
REMARK   97  A    between atoms: _250  and  _251
REMARK   98  A    between atoms: _250  and  _253
REMARK   99  A    between atoms: _253  and  _254
REMARK  100  A    between atoms: _254  and  _484
REMARK  101  A    between atoms: _255  and  _257
REMARK  102  A    between atoms: _257  and  _258
REMARK  103  A    between atoms: _257  and  _260
REMARK  104  A    between atoms: _260  and  _261
REMARK  105  A    between atoms: _264  and  _266
REMARK  106  A    between atoms: _266  and  _267
REMARK  107  A    between atoms: _266  and  _269
REMARK  108  A    between atoms: _269  and  _270
REMARK  109  A    between atoms: _275  and  _276
REMARK  110  A    between atoms: _278  and  _280
REMARK  111  A    between atoms: _280  and  _281
REMARK  112  A    between atoms: _280  and  _283
REMARK  113  A    between atoms: _283  and  _284
REMARK  114  A    between atoms: _289  and  _290
REMARK  115  A    between atoms: _292  and  _294
REMARK  116  A    between atoms: _294  and  _295
REMARK  117  A    between atoms: _294  and  _297
REMARK  118  A    between atoms: _297  and  _298
REMARK  119  A    between atoms: _298  and  _299
REMARK  120  A    between atoms: _302  and  _304
REMARK  121  A    between atoms: _304  and  _305
REMARK  122  A    between atoms: _304  and  _307
REMARK  123  A    between atoms: _307  and  _308
REMARK  124  A    between atoms: _308  and  _309
REMARK  125  A    between atoms: _309  and  _310
REMARK  126  A    between atoms: _310  and  _311
REMARK  127  A    between atoms: _315  and  _317
REMARK  128  A    between atoms: _317  and  _318
REMARK  129  A    between atoms: _317  and  _320
REMARK  130  A    between atoms: _320  and  _321
REMARK  131  A    between atoms: _326  and  _327
REMARK  132  A    between atoms: _329  and  _331
REMARK  133  A    between atoms: _331  and  _332
REMARK  134  A    between atoms: _331  and  _334
REMARK  135  A    between atoms: _334  and  _335
REMARK  136  A    between atoms: _340  and  _342
REMARK  137  A    between atoms: _342  and  _343
REMARK  138  A    between atoms: _342  and  _345
REMARK  139  A    between atoms: _345  and  _346
REMARK  140  A    between atoms: _349  and  _351
REMARK  141  A    between atoms: _351  and  _352
REMARK  142  A    between atoms: _351  and  _354
REMARK  143  A    between atoms: _354  and  _355
REMARK  144  A    between atoms: _360  and  _362
REMARK  145  A    between atoms: _362  and  _363
REMARK  146  A    between atoms: _362  and  _365
REMARK  147  A    between atoms: _365  and  _366
REMARK  148  A    between atoms: _376  and  _378
REMARK  149  A    between atoms: _378  and  _379
REMARK  150  A    between atoms: _378  and  _381
REMARK  151  A    between atoms: _381  and  _382
REMARK  152  A    between atoms: _388  and  _390
REMARK  153  A    between atoms: _390  and  _391
REMARK  154  A    between atoms: _390  and  _393
REMARK  155  A    between atoms: _393  and  _394
REMARK  156  A    between atoms: _397  and  _399
REMARK  157  A    between atoms: _399  and  _400
REMARK  158  A    between atoms: _399  and  _402
REMARK  159  A    between atoms: _402  and  _403
REMARK  160  A    between atoms: _406  and  _408
REMARK  161  A    between atoms: _408  and  _409
REMARK  162  A    between atoms: _408  and  _411
REMARK  163  A    between atoms: _411  and  _412
REMARK  164  A    between atoms: _412  and  _413
REMARK  165  A    between atoms: _413  and  _414
REMARK  166  A    between atoms: _423  and  _425
REMARK  167  A    between atoms: _425  and  _426
REMARK  168  A    between atoms: _425  and  _428
REMARK  169  A    between atoms: _428  and  _429
REMARK  170  A    between atoms: _434  and  _436
REMARK  171  A    between atoms: _436  and  _437
REMARK  172  A    between atoms: _436  and  _439
REMARK  173  A    between atoms: _439  and  _440
REMARK  174  A    between atoms: _440  and  _441
REMARK  175  A    between atoms: _441  and  _442
REMARK  176  A    between atoms: _451  and  _453
REMARK  177  A    between atoms: _453  and  _454
REMARK  178  A    between atoms: _457  and  _459
REMARK  179  A    between atoms: _459  and  _460
REMARK  180  A    between atoms: _462  and  _464
REMARK  181  A    between atoms: _464  and  _465
REMARK  182  A    between atoms: _464  and  _467
REMARK  183  A    between atoms: _467  and  _468
REMARK  184  A    between atoms: _478  and  _480
REMARK  185  A    between atoms: _480  and  _481
REMARK  186  A    between atoms: _480  and  _483
REMARK  187  A    between atoms: _483  and  _484
REMARK  188  A    between atoms: _485  and  _487
REMARK  189  A    between atoms: _487  and  _488
REMARK  190  A    between atoms: _491  and  _493
REMARK  191  A    between atoms: _493  and  _494
REMARK  192  A    between atoms: _493  and  _496
REMARK  193  A    between atoms: _496  and  _497
REMARK  194  A    between atoms: _500  and  _502
REMARK  195  A    between atoms: _502  and  _503
REMARK  196  A    between atoms: _502  and  _505
REMARK  197  A    between atoms: _505  and  _506
REMARK  198  A    between atoms: _511  and  _512
REMARK  199  A    between atoms: _514  and  _516
REMARK  200  A    between atoms: _516  and  _517
REMARK  201  A    between atoms: _516  and  _519
REMARK  202  A    between atoms: _519  and  _520
REMARK  203  A    between atoms: _522  and  _524
REMARK  204  A    between atoms: _524  and  _525
REMARK  205  A    between atoms: _524  and  _527
REMARK  206  A    between atoms: _527  and  _528
REMARK  207  A    between atoms: _534  and  _536
REMARK  208  A    between atoms: _536  and  _537
REMARK  209  A    between atoms: _536  and  _539
REMARK  210  A    between atoms: _539  and  _540
REMARK  211  A    between atoms: _543  and  _545
REMARK  212  A    between atoms: _545  and  _546
REMARK  213  A    between atoms: _545  and  _548
REMARK  214  A    between atoms: _548  and  _549
REMARK  215  A    between atoms: _551  and  _553
REMARK  216  A    between atoms: _553  and  _554
REMARK  217  A    between atoms: _553  and  _556
REMARK  218  A    between atoms: _556  and  _557
REMARK  219  A    between atoms: _562  and  _564
REMARK  220  A    between atoms: _564  and  _565
REMARK  221  A    between atoms: _564  and  _567
REMARK  222  A    between atoms: _567  and  _568
REMARK  223  A    between atoms: _573  and  _575
REMARK  224  A    between atoms: _575  and  _576
REMARK  225  A    between atoms: _575  and  _578
REMARK  226  A    between atoms: _578  and  _579
REMARK  227  A    between atoms: _582  and  _584
REMARK  228  A    between atoms: _584  and  _585
REMARK  229  A    between atoms: _588  and  _590
REMARK  230  A    between atoms: _590  and  _591
REMARK  231  A    between atoms: _590  and  _593
REMARK  232  A    between atoms: _593  and  _594
REMARK  233  A    between atoms: _599  and  _600
REMARK  234  A    between atoms: _602  and  _604
REMARK  235  A    between atoms: _604  and  _605
REMARK  236  A    between atoms: _604  and  _607
REMARK  237  A    between atoms: _607  and  _608
REMARK  238  A    between atoms: _613  and  _614
REMARK  239  A    between atoms: _616  and  _618
REMARK  240  A    between atoms: _618  and  _619
REMARK  241  A    between atoms: _618  and  _621
REMARK  242  A    between atoms: _624  and  _626
REMARK  243  A    between atoms: _626  and  _627
REMARK  244  A    between atoms: _626  and  _629
REMARK  245  A    between atoms: _629  and  _630
REMARK  246  A    between atoms: _635  and  _637
REMARK  247  A    between atoms: _637  and  _638
REMARK  248  A    between atoms: _641  and  _643
REMARK  249  A    between atoms: _643  and  _644
REMARK  250  A    between atoms: _643  and  _646
REMARK  251  A    between atoms: _646  and  _647
REMARK  252  A    between atoms: _647  and  _648
REMARK  253  A    between atoms: _648  and  _649
REMARK  254  A    between atoms: _658  and  _660
REMARK  255  A    between atoms: _660  and  _661
REMARK  256  A    between atoms: _660  and  _663
REMARK  257  A    between atoms: _663  and  _664
REMARK  258  A    between atoms: _667  and  _669
REMARK  259  A    between atoms: _669  and  _670
REMARK  260  A    between atoms: _669  and  _672
REMARK  261  A    between atoms: _672  and  _673
REMARK  262  A    between atoms: _676  and  _678
REMARK  263  A    between atoms: _678  and  _679
REMARK  264  A    between atoms: _678  and  _681
REMARK  265  A    between atoms: _681  and  _682
REMARK  266  A    between atoms: _687  and  _689
REMARK  267  A    between atoms: _689  and  _690
REMARK  268  A    between atoms: _689  and  _692
REMARK  269  A    between atoms: _692  and  _693
REMARK                            x       y       z     vdW  Elec       q    Type
REMARK                         _______ _______ _______ _____ _____    ______ ____
ROOT
ATOM      1  O   HOH     1      44.099  33.324  32.972  0.00  0.00    +0.000 OA
ENDROOT
TORSDOF 0
REMARK  Name = ../refined-set-2016/1b7h/1b7h_pocket.pdb
REMARK  269 active torsions:
REMARK  status: ('A' for Active; 'I' for Inactive)
REMARK    1  A    between atoms: _1  and  _3
REMARK    2  A    between atoms: _3  and  _4
REMARK    3  A    between atoms: _6  and  _8
REMARK    4  A    between atoms: _8  and  _9
REMARK    5  A    between atoms: _8  and  _11
REMARK    6  A    between atoms: _11  and  _12
REMARK    7  A    between atoms: _14  and  _16
REMARK    8  A    between atoms: _16  and  _17
REMARK    9  A    between atoms: _16  and  _19
REMARK   10  A    between atoms: _19  and  _20
REMARK   11  A    between atoms: _20  and  _21
REMARK   12  A    between atoms: _26  and  _28
REMARK   13  A    between atoms: _28  and  _29
REMARK   14  A    between atoms: _28  and  _31
REMARK   15  A    between atoms: _31  and  _32
REMARK   16  A    between atoms: _35  and  _37
REMARK   17  A    between atoms: _37  and  _38
REMARK   18  A    between atoms: _37  and  _40
REMARK   19  A    between atoms: _40  and  _41
REMARK   20  A    between atoms: _41  and  _42
REMARK   21  A    between atoms: _45  and  _47
REMARK   22  A    between atoms: _47  and  _48
REMARK   23  A    between atoms: _50  and  _52
REMARK   24  A    between atoms: _52  and  _53
REMARK   25  A    between atoms: _52  and  _55
REMARK   26  A    between atoms: _59  and  _60
REMARK   27  A    between atoms: _65  and  _67
REMARK   28  A    between atoms: _67  and  _68
REMARK   29  A    between atoms: _67  and  _70
REMARK   30  A    between atoms: _70  and  _71
REMARK   31  A    between atoms: _71  and  _72
REMARK   32  A    between atoms: _75  and  _77
REMARK   33  A    between atoms: _77  and  _78
REMARK   34  A    between atoms: _77  and  _80
REMARK   35  A    between atoms: _80  and  _81
REMARK   36  A    between atoms: _83  and  _85
REMARK   37  A    between atoms: _85  and  _86
REMARK   38  A    between atoms: _85  and  _88
REMARK   39  A    between atoms: _88  and  _89
REMARK   40  A    between atoms: _94  and  _96
REMARK   41  A    between atoms: _96  and  _97
REMARK   42  A    between atoms: _96  and  _99
REMARK   43  A    between atoms: _99  and  _100
REMARK   44  A    between atoms: _100  and  _101
REMARK   45  A    between atoms: _101  and  _102
REMARK   46  A    between atoms: _112  and  _113
REMARK   47  A    between atoms: _118  and  _120
REMARK   48  A    between atoms: _120  and  _121
REMARK   49  A    between atoms: _120  and  _123
REMARK   50  A    between atoms: _123  and  _124
REMARK   51  A    between atoms: _129  and  _130
REMARK   52  A    between atoms: _132  and  _134
REMARK   53  A    between atoms: _134  and  _135
REMARK   54  A    between atoms: _134  and  _137
REMARK   55  A    between atoms: _137  and  _138
REMARK   56  A    between atoms: _143  and  _144
REMARK   57  A    between atoms: _146  and  _148
REMARK   58  A    between atoms: _148  and  _149
REMARK   59  A    between atoms: _148  and  _151
REMARK   60  A    between atoms: _154  and  _156
REMARK   61  A    between atoms: _156  and  _157
REMARK   62  A    between atoms: _156  and  _159
REMARK   63  A    between atoms: _159  and  _160
REMARK   64  A    between atoms: _166  and  _167
REMARK   65  A    between atoms: _172  and  _174
REMARK   66  A    between atoms: _174  and  _175
REMARK   67  A    between atoms: _174  and  _177
REMARK   68  A    between atoms: _177  and  _178
REMARK   69  A    between atoms: _180  and  _182
REMARK   70  A    between atoms: _182  and  _183
REMARK   71  A    between atoms: _182  and  _185
REMARK   72  A    between atoms: _185  and  _186
REMARK   73  A    between atoms: _191  and  _192
REMARK   74  A    between atoms: _194  and  _196
REMARK   75  A    between atoms: _196  and  _197
REMARK   76  A    between atoms: _196  and  _199
REMARK   77  A    between atoms: _199  and  _200
REMARK   78  A    between atoms: _205  and  _207
REMARK   79  A    between atoms: _207  and  _208
REMARK   80  A    between atoms: _207  and  _210
REMARK   81  A    between atoms: _210  and  _211
REMARK   82  A    between atoms: _216  and  _218
REMARK   83  A    between atoms: _218  and  _219
REMARK   84  A    between atoms: _218  and  _221
REMARK   85  A    between atoms: _221  and  _222
REMARK   86  A    between atoms: _222  and  _223
REMARK   87  A    between atoms: _225  and  _227
REMARK   88  A    between atoms: _227  and  _228
REMARK   89  A    between atoms: _227  and  _230
REMARK   90  A    between atoms: _230  and  _231
REMARK   91  A    between atoms: _236  and  _237
REMARK   92  A    between atoms: _239  and  _241
REMARK   93  A    between atoms: _241  and  _242
REMARK   94  A    between atoms: _241  and  _244
REMARK   95  A    between atoms: _244  and  _245
REMARK   96  A    between atoms: _248  and  _250
REMARK   97  A    between atoms: _250  and  _251
REMARK   98  A    between atoms: _250  and  _253
REMARK   99  A    between atoms: _253  and  _254
REMARK  100  A    between atoms: _254  and  _484
REMARK  101  A    between atoms: _255  and  _257
REMARK  102  A    between atoms: _257  and  _258
REMARK  103  A    between atoms: _257  and  _260
REMARK  104  A    between atoms: _260  and  _261
REMARK  105  A    between atoms: _264  and  _266
REMARK  106  A    between atoms: _266  and  _267
REMARK  107  A    between atoms: _266  and  _269
REMARK  108  A    between atoms: _269  and  _270
REMARK  109  A    between atoms: _275  and  _276
REMARK  110  A    between atoms: _278  and  _280
REMARK  111  A    between atoms: _280  and  _281
REMARK  112  A    between atoms: _280  and  _283
REMARK  113  A    between atoms: _283  and  _284
REMARK  114  A    between atoms: _289  and  _290
REMARK  115  A    between atoms: _292  and  _294
REMARK  116  A    between atoms: _294  and  _295
REMARK  117  A    between atoms: _294  and  _297
REMARK  118  A    between atoms: _297  and  _298
REMARK  119  A    between atoms: _298  and  _299
REMARK  120  A    between atoms: _302  and  _304
REMARK  121  A    between atoms: _304  and  _305
REMARK  122  A    between atoms: _304  and  _307
REMARK  123  A    between atoms: _307  and  _308
REMARK  124  A    between atoms: _308  and  _309
REMARK  125  A    between atoms: _309  and  _310
REMARK  126  A    between atoms: _310  and  _311
REMARK  127  A    between atoms: _315  and  _317
REMARK  128  A    between atoms: _317  and  _318
REMARK  129  A    between atoms: _317  and  _320
REMARK  130  A    between atoms: _320  and  _321
REMARK  131  A    between atoms: _326  and  _327
REMARK  132  A    between atoms: _329  and  _331
REMARK  133  A    between atoms: _331  and  _332
REMARK  134  A    between atoms: _331  and  _334
REMARK  135  A    between atoms: _334  and  _335
REMARK  136  A    between atoms: _340  and  _342
REMARK  137  A    between atoms: _342  and  _343
REMARK  138  A    between atoms: _342  and  _345
REMARK  139  A    between atoms: _345  and  _346
REMARK  140  A    between atoms: _349  and  _351
REMARK  141  A    between atoms: _351  and  _352
REMARK  142  A    between atoms: _351  and  _354
REMARK  143  A    between atoms: _354  and  _355
REMARK  144  A    between atoms: _360  and  _362
REMARK  145  A    between atoms: _362  and  _363
REMARK  146  A    between atoms: _362  and  _365
REMARK  147  A    between atoms: _365  and  _366
REMARK  148  A    between atoms: _376  and  _378
REMARK  149  A    between atoms: _378  and  _379
REMARK  150  A    between atoms: _378  and  _381
REMARK  151  A    between atoms: _381  and  _382
REMARK  152  A    between atoms: _388  and  _390
REMARK  153  A    between atoms: _390  and  _391
REMARK  154  A    between atoms: _390  and  _393
REMARK  155  A    between atoms: _393  and  _394
REMARK  156  A    between atoms: _397  and  _399
REMARK  157  A    between atoms: _399  and  _400
REMARK  158  A    between atoms: _399  and  _402
REMARK  159  A    between atoms: _402  and  _403
REMARK  160  A    between atoms: _406  and  _408
REMARK  161  A    between atoms: _408  and  _409
REMARK  162  A    between atoms: _408  and  _411
REMARK  163  A    between atoms: _411  and  _412
REMARK  164  A    between atoms: _412  and  _413
REMARK  165  A    between atoms: _413  and  _414
REMARK  166  A    between atoms: _423  and  _425
REMARK  167  A    between atoms: _425  and  _426
REMARK  168  A    between atoms: _425  and  _428
REMARK  169  A    between atoms: _428  and  _429
REMARK  170  A    between atoms: _434  and  _436
REMARK  171  A    between atoms: _436  and  _437
REMARK  172  A    between atoms: _436  and  _439
REMARK  173  A    between atoms: _439  and  _440
REMARK  174  A    between atoms: _440  and  _441
REMARK  175  A    between atoms: _441  and  _442
REMARK  176  A    between atoms: _451  and  _453
REMARK  177  A    between atoms: _453  and  _454
REMARK  178  A    between atoms: _457  and  _459
REMARK  179  A    between atoms: _459  and  _460
REMARK  180  A    between atoms: _462  and  _464
REMARK  181  A    between atoms: _464  and  _465
REMARK  182  A    between atoms: _464  and  _467
REMARK  183  A    between atoms: _467  and  _468
REMARK  184  A    between atoms: _478  and  _480
REMARK  185  A    between atoms: _480  and  _481
REMARK  186  A    between atoms: _480  and  _483
REMARK  187  A    between atoms: _483  and  _484
REMARK  188  A    between atoms: _485  and  _487
REMARK  189  A    between atoms: _487  and  _488
REMARK  190  A    between atoms: _491  and  _493
REMARK  191  A    between atoms: _493  and  _494
REMARK  192  A    between atoms: _493  and  _496
REMARK  193  A    between atoms: _496  and  _497
REMARK  194  A    between atoms: _500  and  _502
REMARK  195  A    between atoms: _502  and  _503
REMARK  196  A    between atoms: _502  and  _505
REMARK  197  A    between atoms: _505  and  _506
REMARK  198  A    between atoms: _511  and  _512
REMARK  199  A    between atoms: _514  and  _516
REMARK  200  A    between atoms: _516  and  _517
REMARK  201  A    between atoms: _516  and  _519
REMARK  202  A    between atoms: _519  and  _520
REMARK  203  A    between atoms: _522  and  _524
REMARK  204  A    between atoms: _524  and  _525
REMARK  205  A    between atoms: _524  and  _527
REMARK  206  A    between atoms: _527  and  _528
REMARK  207  A    between atoms: _534  and  _536
REMARK  208  A    between atoms: _536  and  _537
REMARK  209  A    between atoms: _536  and  _539
REMARK  210  A    between atoms: _539  and  _540
REMARK  211  A    between atoms: _543  and  _545
REMARK  212  A    between atoms: _545  and  _546
REMARK  213  A    between atoms: _545  and  _548
REMARK  214  A    between atoms: _548  and  _549
REMARK  215  A    between atoms: _551  and  _553
REMARK  216  A    between atoms: _553  and  _554
REMARK  217  A    between atoms: _553  and  _556
REMARK  218  A    between atoms: _556  and  _557
REMARK  219  A    between atoms: _562  and  _564
REMARK  220  A    between atoms: _564  and  _565
REMARK  221  A    between atoms: _564  and  _567
REMARK  222  A    between atoms: _567  and  _568
REMARK  223  A    between atoms: _573  and  _575
REMARK  224  A    between atoms: _575  and  _576
REMARK  225  A    between atoms: _575  and  _578
REMARK  226  A    between atoms: _578  and  _579
REMARK  227  A    between atoms: _582  and  _584
REMARK  228  A    between atoms: _584  and  _585
REMARK  229  A    between atoms: _588  and  _590
REMARK  230  A    between atoms: _590  and  _591
REMARK  231  A    between atoms: _590  and  _593
REMARK  232  A    between atoms: _593  and  _594
REMARK  233  A    between atoms: _599  and  _600
REMARK  234  A    between atoms: _602  and  _604
REMARK  235  A    between atoms: _604  and  _605
REMARK  236  A    between atoms: _604  and  _607
REMARK  237  A    between atoms: _607  and  _608
REMARK  238  A    between atoms: _613  and  _614
REMARK  239  A    between atoms: _616  and  _618
REMARK  240  A    between atoms: _618  and  _619
REMARK  241  A    between atoms: _618  and  _621
REMARK  242  A    between atoms: _624  and  _626
REMARK  243  A    between atoms: _626  and  _627
REMARK  244  A    between atoms: _626  and  _629
REMARK  245  A    between atoms: _629  and  _630
REMARK  246  A    between atoms: _635  and  _637
REMARK  247  A    between atoms: _637  and  _638
REMARK  248  A    between atoms: _641  and  _643
REMARK  249  A    between atoms: _643  and  _644
REMARK  250  A    between atoms: _643  and  _646
REMARK  251  A    between atoms: _646  and  _647
REMARK  252  A    between atoms: _647  and  _648
REMARK  253  A    between atoms: _648  and  _649
REMARK  254  A    between atoms: _658  and  _660
REMARK  255  A    between atoms: _660  and  _661
REMARK  256  A    between atoms: _660  and  _663
REMARK  257  A    between atoms: _663  and  _664
REMARK  258  A    between atoms: _667  and  _669
REMARK  259  A    between atoms: _669  and  _670
REMARK  260  A    between atoms: _669  and  _672
REMARK  261  A    between atoms: _672  and  _673
REMARK  262  A    between atoms: _676  and  _678
REMARK  263  A    between atoms: _678  and  _679
REMARK  264  A    between atoms: _678  and  _681
REMARK  265  A    between atoms: _681  and  _682
REMARK  266  A    between atoms: _687  and  _689
REMARK  267  A    between atoms: _689  and  _690
REMARK  268  A    between atoms: _689  and  _692
REMARK  269  A    between atoms: _692  and  _693
REMARK                            x       y       z     vdW  Elec       q    Type
REMARK                         _______ _______ _______ _____ _____    ______ ____
ROOT
ATOM      1  O   HOH     1      50.970  40.361  24.713  0.00  0.00    +0.000 OA
ENDROOT
TORSDOF 0
REMARK  Name = ../refined-set-2016/1b7h/1b7h_pocket.pdb
REMARK  269 active torsions:
REMARK  status: ('A' for Active; 'I' for Inactive)
REMARK    1  A    between atoms: _1  and  _3
REMARK    2  A    between atoms: _3  and  _4
REMARK    3  A    between atoms: _6  and  _8
REMARK    4  A    between atoms: _8  and  _9
REMARK    5  A    between atoms: _8  and  _11
REMARK    6  A    between atoms: _11  and  _12
REMARK    7  A    between atoms: _14  and  _16
REMARK    8  A    between atoms: _16  and  _17
REMARK    9  A    between atoms: _16  and  _19
REMARK   10  A    between atoms: _19  and  _20
REMARK   11  A    between atoms: _20  and  _21
REMARK   12  A    between atoms: _26  and  _28
REMARK   13  A    between atoms: _28  and  _29
REMARK   14  A    between atoms: _28  and  _31
REMARK   15  A    between atoms: _31  and  _32
REMARK   16  A    between atoms: _35  and  _37
REMARK   17  A    between atoms: _37  and  _38
REMARK   18  A    between atoms: _37  and  _40
REMARK   19  A    between atoms: _40  and  _41
REMARK   20  A    between atoms: _41  and  _42
REMARK   21  A    between atoms: _45  and  _47
REMARK   22  A    between atoms: _47  and  _48
REMARK   23  A    between atoms: _50  and  _52
REMARK   24  A    between atoms: _52  and  _53
REMARK   25  A    between atoms: _52  and  _55
REMARK   26  A    between atoms: _59  and  _60
REMARK   27  A    between atoms: _65  and  _67
REMARK   28  A    between atoms: _67  and  _68
REMARK   29  A    between atoms: _67  and  _70
REMARK   30  A    between atoms: _70  and  _71
REMARK   31  A    between atoms: _71  and  _72
REMARK   32  A    between atoms: _75  and  _77
REMARK   33  A    between atoms: _77  and  _78
REMARK   34  A    between atoms: _77  and  _80
REMARK   35  A    between atoms: _80  and  _81
REMARK   36  A    between atoms: _83  and  _85
REMARK   37  A    between atoms: _85  and  _86
REMARK   38  A    between atoms: _85  and  _88
REMARK   39  A    between atoms: _88  and  _89
REMARK   40  A    between atoms: _94  and  _96
REMARK   41  A    between atoms: _96  and  _97
REMARK   42  A    between atoms: _96  and  _99
REMARK   43  A    between atoms: _99  and  _100
REMARK   44  A    between atoms: _100  and  _101
REMARK   45  A    between atoms: _101  and  _102
REMARK   46  A    between atoms: _112  and  _113
REMARK   47  A    between atoms: _118  and  _120
REMARK   48  A    between atoms: _120  and  _121
REMARK   49  A    between atoms: _120  and  _123
REMARK   50  A    between atoms: _123  and  _124
REMARK   51  A    between atoms: _129  and  _130
REMARK   52  A    between atoms: _132  and  _134
REMARK   53  A    between atoms: _134  and  _135
REMARK   54  A    between atoms: _134  and  _137
REMARK   55  A    between atoms: _137  and  _138
REMARK   56  A    between atoms: _143  and  _144
REMARK   57  A    between atoms: _146  and  _148
REMARK   58  A    between atoms: _148  and  _149
REMARK   59  A    between atoms: _148  and  _151
REMARK   60  A    between atoms: _154  and  _156
REMARK   61  A    between atoms: _156  and  _157
REMARK   62  A    between atoms: _156  and  _159
REMARK   63  A    between atoms: _159  and  _160
REMARK   64  A    between atoms: _166  and  _167
REMARK   65  A    between atoms: _172  and  _174
REMARK   66  A    between atoms: _174  and  _175
REMARK   67  A    between atoms: _174  and  _177
REMARK   68  A    between atoms: _177  and  _178
REMARK   69  A    between atoms: _180  and  _182
REMARK   70  A    between atoms: _182  and  _183
REMARK   71  A    between atoms: _182  and  _185
REMARK   72  A    between atoms: _185  and  _186
REMARK   73  A    between atoms: _191  and  _192
REMARK   74  A    between atoms: _194  and  _196
REMARK   75  A    between atoms: _196  and  _197
REMARK   76  A    between atoms: _196  and  _199
REMARK   77  A    between atoms: _199  and  _200
REMARK   78  A    between atoms: _205  and  _207
REMARK   79  A    between atoms: _207  and  _208
REMARK   80  A    between atoms: _207  and  _210
REMARK   81  A    between atoms: _210  and  _211
REMARK   82  A    between atoms: _216  and  _218
REMARK   83  A    between atoms: _218  and  _219
REMARK   84  A    between atoms: _218  and  _221
REMARK   85  A    between atoms: _221  and  _222
REMARK   86  A    between atoms: _222  and  _223
REMARK   87  A    between atoms: _225  and  _227
REMARK   88  A    between atoms: _227  and  _228
REMARK   89  A    between atoms: _227  and  _230
REMARK   90  A    between atoms: _230  and  _231
REMARK   91  A    between atoms: _236  and  _237
REMARK   92  A    between atoms: _239  and  _241
REMARK   93  A    between atoms: _241  and  _242
REMARK   94  A    between atoms: _241  and  _244
REMARK   95  A    between atoms: _244  and  _245
REMARK   96  A    between atoms: _248  and  _250
REMARK   97  A    between atoms: _250  and  _251
REMARK   98  A    between atoms: _250  and  _253
REMARK   99  A    between atoms: _253  and  _254
REMARK  100  A    between atoms: _254  and  _484
REMARK  101  A    between atoms: _255  and  _257
REMARK  102  A    between atoms: _257  and  _258
REMARK  103  A    between atoms: _257  and  _260
REMARK  104  A    between atoms: _260  and  _261
REMARK  105  A    between atoms: _264  and  _266
REMARK  106  A    between atoms: _266  and  _267
REMARK  107  A    between atoms: _266  and  _269
REMARK  108  A    between atoms: _269  and  _270
REMARK  109  A    between atoms: _275  and  _276
REMARK  110  A    between atoms: _278  and  _280
REMARK  111  A    between atoms: _280  and  _281
REMARK  112  A    between atoms: _280  and  _283
REMARK  113  A    between atoms: _283  and  _284
REMARK  114  A    between atoms: _289  and  _290
REMARK  115  A    between atoms: _292  and  _294
REMARK  116  A    between atoms: _294  and  _295
REMARK  117  A    between atoms: _294  and  _297
REMARK  118  A    between atoms: _297  and  _298
REMARK  119  A    between atoms: _298  and  _299
REMARK  120  A    between atoms: _302  and  _304
REMARK  121  A    between atoms: _304  and  _305
REMARK  122  A    between atoms: _304  and  _307
REMARK  123  A    between atoms: _307  and  _308
REMARK  124  A    between atoms: _308  and  _309
REMARK  125  A    between atoms: _309  and  _310
REMARK  126  A    between atoms: _310  and  _311
REMARK  127  A    between atoms: _315  and  _317
REMARK  128  A    between atoms: _317  and  _318
REMARK  129  A    between atoms: _317  and  _320
REMARK  130  A    between atoms: _320  and  _321
REMARK  131  A    between atoms: _326  and  _327
REMARK  132  A    between atoms: _329  and  _331
REMARK  133  A    between atoms: _331  and  _332
REMARK  134  A    between atoms: _331  and  _334
REMARK  135  A    between atoms: _334  and  _335
REMARK  136  A    between atoms: _340  and  _342
REMARK  137  A    between atoms: _342  and  _343
REMARK  138  A    between atoms: _342  and  _345
REMARK  139  A    between atoms: _345  and  _346
REMARK  140  A    between atoms: _349  and  _351
REMARK  141  A    between atoms: _351  and  _352
REMARK  142  A    between atoms: _351  and  _354
REMARK  143  A    between atoms: _354  and  _355
REMARK  144  A    between atoms: _360  and  _362
REMARK  145  A    between atoms: _362  and  _363
REMARK  146  A    between atoms: _362  and  _365
REMARK  147  A    between atoms: _365  and  _366
REMARK  148  A    between atoms: _376  and  _378
REMARK  149  A    between atoms: _378  and  _379
REMARK  150  A    between atoms: _378  and  _381
REMARK  151  A    between atoms: _381  and  _382
REMARK  152  A    between atoms: _388  and  _390
REMARK  153  A    between atoms: _390  and  _391
REMARK  154  A    between atoms: _390  and  _393
REMARK  155  A    between atoms: _393  and  _394
REMARK  156  A    between atoms: _397  and  _399
REMARK  157  A    between atoms: _399  and  _400
REMARK  158  A    between atoms: _399  and  _402
REMARK  159  A    between atoms: _402  and  _403
REMARK  160  A    between atoms: _406  and  _408
REMARK  161  A    between atoms: _408  and  _409
REMARK  162  A    between atoms: _408  and  _411
REMARK  163  A    between atoms: _411  and  _412
REMARK  164  A    between atoms: _412  and  _413
REMARK  165  A    between atoms: _413  and  _414
REMARK  166  A    between atoms: _423  and  _425
REMARK  167  A    between atoms: _425  and  _426
REMARK  168  A    between atoms: _425  and  _428
REMARK  169  A    between atoms: _428  and  _429
REMARK  170  A    between atoms: _434  and  _436
REMARK  171  A    between atoms: _436  and  _437
REMARK  172  A    between atoms: _436  and  _439
REMARK  173  A    between atoms: _439  and  _440
REMARK  174  A    between atoms: _440  and  _441
REMARK  175  A    between atoms: _441  and  _442
REMARK  176  A    between atoms: _451  and  _453
REMARK  177  A    between atoms: _453  and  _454
REMARK  178  A    between atoms: _457  and  _459
REMARK  179  A    between atoms: _459  and  _460
REMARK  180  A    between atoms: _462  and  _464
REMARK  181  A    between atoms: _464  and  _465
REMARK  182  A    between atoms: _464  and  _467
REMARK  183  A    between atoms: _467  and  _468
REMARK  184  A    between atoms: _478  and  _480
REMARK  185  A    between atoms: _480  and  _481
REMARK  186  A    between atoms: _480  and  _483
REMARK  187  A    between atoms: _483  and  _484
REMARK  188  A    between atoms: _485  and  _487
REMARK  189  A    between atoms: _487  and  _488
REMARK  190  A    between atoms: _491  and  _493
REMARK  191  A    between atoms: _493  and  _494
REMARK  192  A    between atoms: _493  and  _496
REMARK  193  A    between atoms: _496  and  _497
REMARK  194  A    between atoms: _500  and  _502
REMARK  195  A    between atoms: _502  and  _503
REMARK  196  A    between atoms: _502  and  _505
REMARK  197  A    between atoms: _505  and  _506
REMARK  198  A    between atoms: _511  and  _512
REMARK  199  A    between atoms: _514  and  _516
REMARK  200  A    between atoms: _516  and  _517
REMARK  201  A    between atoms: _516  and  _519
REMARK  202  A    between atoms: _519  and  _520
REMARK  203  A    between atoms: _522  and  _524
REMARK  204  A    between atoms: _524  and  _525
REMARK  205  A    between atoms: _524  and  _527
REMARK  206  A    between atoms: _527  and  _528
REMARK  207  A    between atoms: _534  and  _536
REMARK  208  A    between atoms: _536  and  _537
REMARK  209  A    between atoms: _536  and  _539
REMARK  210  A    between atoms: _539  and  _540
REMARK  211  A    between atoms: _543  and  _545
REMARK  212  A    between atoms: _545  and  _546
REMARK  213  A    between atoms: _545  and  _548
REMARK  214  A    between atoms: _548  and  _549
REMARK  215  A    between atoms: _551  and  _553
REMARK  216  A    between atoms: _553  and  _554
REMARK  217  A    between atoms: _553  and  _556
REMARK  218  A    between atoms: _556  and  _557
REMARK  219  A    between atoms: _562  and  _564
REMARK  220  A    between atoms: _564  and  _565
REMARK  221  A    between atoms: _564  and  _567
REMARK  222  A    between atoms: _567  and  _568
REMARK  223  A    between atoms: _573  and  _575
REMARK  224  A    between atoms: _575  and  _576
REMARK  225  A    between atoms: _575  and  _578
REMARK  226  A    between atoms: _578  and  _579
REMARK  227  A    between atoms: _582  and  _584
REMARK  228  A    between atoms: _584  and  _585
REMARK  229  A    between atoms: _588  and  _590
REMARK  230  A    between atoms: _590  and  _591
REMARK  231  A    between atoms: _590  and  _593
REMARK  232  A    between atoms: _593  and  _594
REMARK  233  A    between atoms: _599  and  _600
REMARK  234  A    between atoms: _602  and  _604
REMARK  235  A    between atoms: _604  and  _605
REMARK  236  A    between atoms: _604  and  _607
REMARK  237  A    between atoms: _607  and  _608
REMARK  238  A    between atoms: _613  and  _614
REMARK  239  A    between atoms: _616  and  _618
REMARK  240  A    between atoms: _618  and  _619
REMARK  241  A    between atoms: _618  and  _621
REMARK  242  A    between atoms: _624  and  _626
REMARK  243  A    between atoms: _626  and  _627
REMARK  244  A    between atoms: _626  and  _629
REMARK  245  A    between atoms: _629  and  _630
REMARK  246  A    between atoms: _635  and  _637
REMARK  247  A    between atoms: _637  and  _638
REMARK  248  A    between atoms: _641  and  _643
REMARK  249  A    between atoms: _643  and  _644
REMARK  250  A    between atoms: _643  and  _646
REMARK  251  A    between atoms: _646  and  _647
REMARK  252  A    between atoms: _647  and  _648
REMARK  253  A    between atoms: _648  and  _649
REMARK  254  A    between atoms: _658  and  _660
REMARK  255  A    between atoms: _660  and  _661
REMARK  256  A    between atoms: _660  and  _663
REMARK  257  A    between atoms: _663  and  _664
REMARK  258  A    between atoms: _667  and  _669
REMARK  259  A    between atoms: _669  and  _670
REMARK  260  A    between atoms: _669  and  _672
REMARK  261  A    between atoms: _672  and  _673
REMARK  262  A    between atoms: _676  and  _678
REMARK  263  A    between atoms: _678  and  _679
REMARK  264  A    between atoms: _678  and  _681
REMARK  265  A    between atoms: _681  and  _682
REMARK  266  A    between atoms: _687  and  _689
REMARK  267  A    between atoms: _689  and  _690
REMARK  268  A    between atoms: _689  and  _692
REMARK  269  A    between atoms: _692  and  _693
REMARK                            x       y       z     vdW  Elec       q    Type
REMARK                         _______ _______ _______ _____ _____    ______ ____
ROOT
ATOM      1  O   HOH     1      34.489  35.758  14.317  0.00  0.00    +0.000 OA
ENDROOT
TORSDOF 0
REMARK  Name = ../refined-set-2016/1b7h/1b7h_pocket.pdb
REMARK  269 active torsions:
REMARK  status: ('A' for Active; 'I' for Inactive)
REMARK    1  A    between atoms: _1  and  _3
REMARK    2  A    between atoms: _3  and  _4
REMARK    3  A    between atoms: _6  and  _8
REMARK    4  A    between atoms: _8  and  _9
REMARK    5  A    between atoms: _8  and  _11
REMARK    6  A    between atoms: _11  and  _12
REMARK    7  A    between atoms: _14  and  _16
REMARK    8  A    between atoms: _16  and  _17
REMARK    9  A    between atoms: _16  and  _19
REMARK   10  A    between atoms: _19  and  _20
REMARK   11  A    between atoms: _20  and  _21
REMARK   12  A    between atoms: _26  and  _28
REMARK   13  A    between atoms: _28  and  _29
REMARK   14  A    between atoms: _28  and  _31
REMARK   15  A    between atoms: _31  and  _32
REMARK   16  A    between atoms: _35  and  _37
REMARK   17  A    between atoms: _37  and  _38
REMARK   18  A    between atoms: _37  and  _40
REMARK   19  A    between atoms: _40  and  _41
REMARK   20  A    between atoms: _41  and  _42
REMARK   21  A    between atoms: _45  and  _47
REMARK   22  A    between atoms: _47  and  _48
REMARK   23  A    between atoms: _50  and  _52
REMARK   24  A    between atoms: _52  and  _53
REMARK   25  A    between atoms: _52  and  _55
REMARK   26  A    between atoms: _59  and  _60
REMARK   27  A    between atoms: _65  and  _67
REMARK   28  A    between atoms: _67  and  _68
REMARK   29  A    between atoms: _67  and  _70
REMARK   30  A    between atoms: _70  and  _71
REMARK   31  A    between atoms: _71  and  _72
REMARK   32  A    between atoms: _75  and  _77
REMARK   33  A    between atoms: _77  and  _78
REMARK   34  A    between atoms: _77  and  _80
REMARK   35  A    between atoms: _80  and  _81
REMARK   36  A    between atoms: _83  and  _85
REMARK   37  A    between atoms: _85  and  _86
REMARK   38  A    between atoms: _85  and  _88
REMARK   39  A    between atoms: _88  and  _89
REMARK   40  A    between atoms: _94  and  _96
REMARK   41  A    between atoms: _96  and  _97
REMARK   42  A    between atoms: _96  and  _99
REMARK   43  A    between atoms: _99  and  _100
REMARK   44  A    between atoms: _100  and  _101
REMARK   45  A    between atoms: _101  and  _102
REMARK   46  A    between atoms: _112  and  _113
REMARK   47  A    between atoms: _118  and  _120
REMARK   48  A    between atoms: _120  and  _121
REMARK   49  A    between atoms: _120  and  _123
REMARK   50  A    between atoms: _123  and  _124
REMARK   51  A    between atoms: _129  and  _130
REMARK   52  A    between atoms: _132  and  _134
REMARK   53  A    between atoms: _134  and  _135
REMARK   54  A    between atoms: _134  and  _137
REMARK   55  A    between atoms: _137  and  _138
REMARK   56  A    between atoms: _143  and  _144
REMARK   57  A    between atoms: _146  and  _148
REMARK   58  A    between atoms: _148  and  _149
REMARK   59  A    between atoms: _148  and  _151
REMARK   60  A    between atoms: _154  and  _156
REMARK   61  A    between atoms: _156  and  _157
REMARK   62  A    between atoms: _156  and  _159
REMARK   63  A    between atoms: _159  and  _160
REMARK   64  A    between atoms: _166  and  _167
REMARK   65  A    between atoms: _172  and  _174
REMARK   66  A    between atoms: _174  and  _175
REMARK   67  A    between atoms: _174  and  _177
REMARK   68  A    between atoms: _177  and  _178
REMARK   69  A    between atoms: _180  and  _182
REMARK   70  A    between atoms: _182  and  _183
REMARK   71  A    between atoms: _182  and  _185
REMARK   72  A    between atoms: _185  and  _186
REMARK   73  A    between atoms: _191  and  _192
REMARK   74  A    between atoms: _194  and  _196
REMARK   75  A    between atoms: _196  and  _197
REMARK   76  A    between atoms: _196  and  _199
REMARK   77  A    between atoms: _199  and  _200
REMARK   78  A    between atoms: _205  and  _207
REMARK   79  A    between atoms: _207  and  _208
REMARK   80  A    between atoms: _207  and  _210
REMARK   81  A    between atoms: _210  and  _211
REMARK   82  A    between atoms: _216  and  _218
REMARK   83  A    between atoms: _218  and  _219
REMARK   84  A    between atoms: _218  and  _221
REMARK   85  A    between atoms: _221  and  _222
REMARK   86  A    between atoms: _222  and  _223
REMARK   87  A    between atoms: _225  and  _227
REMARK   88  A    between atoms: _227  and  _228
REMARK   89  A    between atoms: _227  and  _230
REMARK   90  A    between atoms: _230  and  _231
REMARK   91  A    between atoms: _236  and  _237
REMARK   92  A    between atoms: _239  and  _241
REMARK   93  A    between atoms: _241  and  _242
REMARK   94  A    between atoms: _241  and  _244
REMARK   95  A    between atoms: _244  and  _245
REMARK   96  A    between atoms: _248  and  _250
REMARK   97  A    between atoms: _250  and  _251
REMARK   98  A    between atoms: _250  and  _253
REMARK   99  A    between atoms: _253  and  _254
REMARK  100  A    between atoms: _254  and  _484
REMARK  101  A    between atoms: _255  and  _257
REMARK  102  A    between atoms: _257  and  _258
REMARK  103  A    between atoms: _257  and  _260
REMARK  104  A    between atoms: _260  and  _261
REMARK  105  A    between atoms: _264  and  _266
REMARK  106  A    between atoms: _266  and  _267
REMARK  107  A    between atoms: _266  and  _269
REMARK  108  A    between atoms: _269  and  _270
REMARK  109  A    between atoms: _275  and  _276
REMARK  110  A    between atoms: _278  and  _280
REMARK  111  A    between atoms: _280  and  _281
REMARK  112  A    between atoms: _280  and  _283
REMARK  113  A    between atoms: _283  and  _284
REMARK  114  A    between atoms: _289  and  _290
REMARK  115  A    between atoms: _292  and  _294
REMARK  116  A    between atoms: _294  and  _295
REMARK  117  A    between atoms: _294  and  _297
REMARK  118  A    between atoms: _297  and  _298
REMARK  119  A    between atoms: _298  and  _299
REMARK  120  A    between atoms: _302  and  _304
REMARK  121  A    between atoms: _304  and  _305
REMARK  122  A    between atoms: _304  and  _307
REMARK  123  A    between atoms: _307  and  _308
REMARK  124  A    between atoms: _308  and  _309
REMARK  125  A    between atoms: _309  and  _310
REMARK  126  A    between atoms: _310  and  _311
REMARK  127  A    between atoms: _315  and  _317
REMARK  128  A    between atoms: _317  and  _318
REMARK  129  A    between atoms: _317  and  _320
REMARK  130  A    between atoms: _320  and  _321
REMARK  131  A    between atoms: _326  and  _327
REMARK  132  A    between atoms: _329  and  _331
REMARK  133  A    between atoms: _331  and  _332
REMARK  134  A    between atoms: _331  and  _334
REMARK  135  A    between atoms: _334  and  _335
REMARK  136  A    between atoms: _340  and  _342
REMARK  137  A    between atoms: _342  and  _343
REMARK  138  A    between atoms: _342  and  _345
REMARK  139  A    between atoms: _345  and  _346
REMARK  140  A    between atoms: _349  and  _351
REMARK  141  A    between atoms: _351  and  _352
REMARK  142  A    between atoms: _351  and  _354
REMARK  143  A    between atoms: _354  and  _355
REMARK  144  A    between atoms: _360  and  _362
REMARK  145  A    between atoms: _362  and  _363
REMARK  146  A    between atoms: _362  and  _365
REMARK  147  A    between atoms: _365  and  _366
REMARK  148  A    between atoms: _376  and  _378
REMARK  149  A    between atoms: _378  and  _379
REMARK  150  A    between atoms: _378  and  _381
REMARK  151  A    between atoms: _381  and  _382
REMARK  152  A    between atoms: _388  and  _390
REMARK  153  A    between atoms: _390  and  _391
REMARK  154  A    between atoms: _390  and  _393
REMARK  155  A    between atoms: _393  and  _394
REMARK  156  A    between atoms: _397  and  _399
REMARK  157  A    between atoms: _399  and  _400
REMARK  158  A    between atoms: _399  and  _402
REMARK  159  A    between atoms: _402  and  _403
REMARK  160  A    between atoms: _406  and  _408
REMARK  161  A    between atoms: _408  and  _409
REMARK  162  A    between atoms: _408  and  _411
REMARK  163  A    between atoms: _411  and  _412
REMARK  164  A    between atoms: _412  and  _413
REMARK  165  A    between atoms: _413  and  _414
REMARK  166  A    between atoms: _423  and  _425
REMARK  167  A    between atoms: _425  and  _426
REMARK  168  A    between atoms: _425  and  _428
REMARK  169  A    between atoms: _428  and  _429
REMARK  170  A    between atoms: _434  and  _436
REMARK  171  A    between atoms: _436  and  _437
REMARK  172  A    between atoms: _436  and  _439
REMARK  173  A    between atoms: _439  and  _440
REMARK  174  A    between atoms: _440  and  _441
REMARK  175  A    between atoms: _441  and  _442
REMARK  176  A    between atoms: _451  and  _453
REMARK  177  A    between atoms: _453  and  _454
REMARK  178  A    between atoms: _457  and  _459
REMARK  179  A    between atoms: _459  and  _460
REMARK  180  A    between atoms: _462  and  _464
REMARK  181  A    between atoms: _464  and  _465
REMARK  182  A    between atoms: _464  and  _467
REMARK  183  A    between atoms: _467  and  _468
REMARK  184  A    between atoms: _478  and  _480
REMARK  185  A    between atoms: _480  and  _481
REMARK  186  A    between atoms: _480  and  _483
REMARK  187  A    between atoms: _483  and  _484
REMARK  188  A    between atoms: _485  and  _487
REMARK  189  A    between atoms: _487  and  _488
REMARK  190  A    between atoms: _491  and  _493
REMARK  191  A    between atoms: _493  and  _494
REMARK  192  A    between atoms: _493  and  _496
REMARK  193  A    between atoms: _496  and  _497
REMARK  194  A    between atoms: _500  and  _502
REMARK  195  A    between atoms: _502  and  _503
REMARK  196  A    between atoms: _502  and  _505
REMARK  197  A    between atoms: _505  and  _506
REMARK  198  A    between atoms: _511  and  _512
REMARK  199  A    between atoms: _514  and  _516
REMARK  200  A    between atoms: _516  and  _517
REMARK  201  A    between atoms: _516  and  _519
REMARK  202  A    between atoms: _519  and  _520
REMARK  203  A    between atoms: _522  and  _524
REMARK  204  A    between atoms: _524  and  _525
REMARK  205  A    between atoms: _524  and  _527
REMARK  206  A    between atoms: _527  and  _528
REMARK  207  A    between atoms: _534  and  _536
REMARK  208  A    between atoms: _536  and  _537
REMARK  209  A    between atoms: _536  and  _539
REMARK  210  A    between atoms: _539  and  _540
REMARK  211  A    between atoms: _543  and  _545
REMARK  212  A    between atoms: _545  and  _546
REMARK  213  A    between atoms: _545  and  _548
REMARK  214  A    between atoms: _548  and  _549
REMARK  215  A    between atoms: _551  and  _553
REMARK  216  A    between atoms: _553  and  _554
REMARK  217  A    between atoms: _553  and  _556
REMARK  218  A    between atoms: _556  and  _557
REMARK  219  A    between atoms: _562  and  _564
REMARK  220  A    between atoms: _564  and  _565
REMARK  221  A    between atoms: _564  and  _567
REMARK  222  A    between atoms: _567  and  _568
REMARK  223  A    between atoms: _573  and  _575
REMARK  224  A    between atoms: _575  and  _576
REMARK  225  A    between atoms: _575  and  _578
REMARK  226  A    between atoms: _578  and  _579
REMARK  227  A    between atoms: _582  and  _584
REMARK  228  A    between atoms: _584  and  _585
REMARK  229  A    between atoms: _588  and  _590
REMARK  230  A    between atoms: _590  and  _591
REMARK  231  A    between atoms: _590  and  _593
REMARK  232  A    between atoms: _593  and  _594
REMARK  233  A    between atoms: _599  and  _600
REMARK  234  A    between atoms: _602  and  _604
REMARK  235  A    between atoms: _604  and  _605
REMARK  236  A    between atoms: _604  and  _607
REMARK  237  A    between atoms: _607  and  _608
REMARK  238  A    between atoms: _613  and  _614
REMARK  239  A    between atoms: _616  and  _618
REMARK  240  A    between atoms: _618  and  _619
REMARK  241  A    between atoms: _618  and  _621
REMARK  242  A    between atoms: _624  and  _626
REMARK  243  A    between atoms: _626  and  _627
REMARK  244  A    between atoms: _626  and  _629
REMARK  245  A    between atoms: _629  and  _630
REMARK  246  A    between atoms: _635  and  _637
REMARK  247  A    between atoms: _637  and  _638
REMARK  248  A    between atoms: _641  and  _643
REMARK  249  A    between atoms: _643  and  _644
REMARK  250  A    between atoms: _643  and  _646
REMARK  251  A    between atoms: _646  and  _647
REMARK  252  A    between atoms: _647  and  _648
REMARK  253  A    between atoms: _648  and  _649
REMARK  254  A    between atoms: _658  and  _660
REMARK  255  A    between atoms: _660  and  _661
REMARK  256  A    between atoms: _660  and  _663
REMARK  257  A    between atoms: _663  and  _664
REMARK  258  A    between atoms: _667  and  _669
REMARK  259  A    between atoms: _669  and  _670
REMARK  260  A    between atoms: _669  and  _672
REMARK  261  A    between atoms: _672  and  _673
REMARK  262  A    between atoms: _676  and  _678
REMARK  263  A    between atoms: _678  and  _679
REMARK  264  A    between atoms: _678  and  _681
REMARK  265  A    between atoms: _681  and  _682
REMARK  266  A    between atoms: _687  and  _689
REMARK  267  A    between atoms: _689  and  _690
REMARK  268  A    between atoms: _689  and  _692
REMARK  269  A    between atoms: _692  and  _693
REMARK                            x       y       z     vdW  Elec       q    Type
REMARK                         _______ _______ _______ _____ _____    ______ ____
ROOT
ATOM      1  O   HOH     1      45.384  26.929  23.033  0.00  0.00    +0.000 OA
ENDROOT
TORSDOF 0
REMARK  Name = ../refined-set-2016/1b7h/1b7h_pocket.pdb
REMARK  269 active torsions:
REMARK  status: ('A' for Active; 'I' for Inactive)
REMARK    1  A    between atoms: _1  and  _3
REMARK    2  A    between atoms: _3  and  _4
REMARK    3  A    between atoms: _6  and  _8
REMARK    4  A    between atoms: _8  and  _9
REMARK    5  A    between atoms: _8  and  _11
REMARK    6  A    between atoms: _11  and  _12
REMARK    7  A    between atoms: _14  and  _16
REMARK    8  A    between atoms: _16  and  _17
REMARK    9  A    between atoms: _16  and  _19
REMARK   10  A    between atoms: _19  and  _20
REMARK   11  A    between atoms: _20  and  _21
REMARK   12  A    between atoms: _26  and  _28
REMARK   13  A    between atoms: _28  and  _29
REMARK   14  A    between atoms: _28  and  _31
REMARK   15  A    between atoms: _31  and  _32
REMARK   16  A    between atoms: _35  and  _37
REMARK   17  A    between atoms: _37  and  _38
REMARK   18  A    between atoms: _37  and  _40
REMARK   19  A    between atoms: _40  and  _41
REMARK   20  A    between atoms: _41  and  _42
REMARK   21  A    between atoms: _45  and  _47
REMARK   22  A    between atoms: _47  and  _48
REMARK   23  A    between atoms: _50  and  _52
REMARK   24  A    between atoms: _52  and  _53
REMARK   25  A    between atoms: _52  and  _55
REMARK   26  A    between atoms: _59  and  _60
REMARK   27  A    between atoms: _65  and  _67
REMARK   28  A    between atoms: _67  and  _68
REMARK   29  A    between atoms: _67  and  _70
REMARK   30  A    between atoms: _70  and  _71
REMARK   31  A    between atoms: _71  and  _72
REMARK   32  A    between atoms: _75  and  _77
REMARK   33  A    between atoms: _77  and  _78
REMARK   34  A    between atoms: _77  and  _80
REMARK   35  A    between atoms: _80  and  _81
REMARK   36  A    between atoms: _83  and  _85
REMARK   37  A    between atoms: _85  and  _86
REMARK   38  A    between atoms: _85  and  _88
REMARK   39  A    between atoms: _88  and  _89
REMARK   40  A    between atoms: _94  and  _96
REMARK   41  A    between atoms: _96  and  _97
REMARK   42  A    between atoms: _96  and  _99
REMARK   43  A    between atoms: _99  and  _100
REMARK   44  A    between atoms: _100  and  _101
REMARK   45  A    between atoms: _101  and  _102
REMARK   46  A    between atoms: _112  and  _113
REMARK   47  A    between atoms: _118  and  _120
REMARK   48  A    between atoms: _120  and  _121
REMARK   49  A    between atoms: _120  and  _123
REMARK   50  A    between atoms: _123  and  _124
REMARK   51  A    between atoms: _129  and  _130
REMARK   52  A    between atoms: _132  and  _134
REMARK   53  A    between atoms: _134  and  _135
REMARK   54  A    between atoms: _134  and  _137
REMARK   55  A    between atoms: _137  and  _138
REMARK   56  A    between atoms: _143  and  _144
REMARK   57  A    between atoms: _146  and  _148
REMARK   58  A    between atoms: _148  and  _149
REMARK   59  A    between atoms: _148  and  _151
REMARK   60  A    between atoms: _154  and  _156
REMARK   61  A    between atoms: _156  and  _157
REMARK   62  A    between atoms: _156  and  _159
REMARK   63  A    between atoms: _159  and  _160
REMARK   64  A    between atoms: _166  and  _167
REMARK   65  A    between atoms: _172  and  _174
REMARK   66  A    between atoms: _174  and  _175
REMARK   67  A    between atoms: _174  and  _177
REMARK   68  A    between atoms: _177  and  _178
REMARK   69  A    between atoms: _180  and  _182
REMARK   70  A    between atoms: _182  and  _183
REMARK   71  A    between atoms: _182  and  _185
REMARK   72  A    between atoms: _185  and  _186
REMARK   73  A    between atoms: _191  and  _192
REMARK   74  A    between atoms: _194  and  _196
REMARK   75  A    between atoms: _196  and  _197
REMARK   76  A    between atoms: _196  and  _199
REMARK   77  A    between atoms: _199  and  _200
REMARK   78  A    between atoms: _205  and  _207
REMARK   79  A    between atoms: _207  and  _208
REMARK   80  A    between atoms: _207  and  _210
REMARK   81  A    between atoms: _210  and  _211
REMARK   82  A    between atoms: _216  and  _218
REMARK   83  A    between atoms: _218  and  _219
REMARK   84  A    between atoms: _218  and  _221
REMARK   85  A    between atoms: _221  and  _222
REMARK   86  A    between atoms: _222  and  _223
REMARK   87  A    between atoms: _225  and  _227
REMARK   88  A    between atoms: _227  and  _228
REMARK   89  A    between atoms: _227  and  _230
REMARK   90  A    between atoms: _230  and  _231
REMARK   91  A    between atoms: _236  and  _237
REMARK   92  A    between atoms: _239  and  _241
REMARK   93  A    between atoms: _241  and  _242
REMARK   94  A    between atoms: _241  and  _244
REMARK   95  A    between atoms: _244  and  _245
REMARK   96  A    between atoms: _248  and  _250
REMARK   97  A    between atoms: _250  and  _251
REMARK   98  A    between atoms: _250  and  _253
REMARK   99  A    between atoms: _253  and  _254
REMARK  100  A    between atoms: _254  and  _484
REMARK  101  A    between atoms: _255  and  _257
REMARK  102  A    between atoms: _257  and  _258
REMARK  103  A    between atoms: _257  and  _260
REMARK  104  A    between atoms: _260  and  _261
REMARK  105  A    between atoms: _264  and  _266
REMARK  106  A    between atoms: _266  and  _267
REMARK  107  A    between atoms: _266  and  _269
REMARK  108  A    between atoms: _269  and  _270
REMARK  109  A    between atoms: _275  and  _276
REMARK  110  A    between atoms: _278  and  _280
REMARK  111  A    between atoms: _280  and  _281
REMARK  112  A    between atoms: _280  and  _283
REMARK  113  A    between atoms: _283  and  _284
REMARK  114  A    between atoms: _289  and  _290
REMARK  115  A    between atoms: _292  and  _294
REMARK  116  A    between atoms: _294  and  _295
REMARK  117  A    between atoms: _294  and  _297
REMARK  118  A    between atoms: _297  and  _298
REMARK  119  A    between atoms: _298  and  _299
REMARK  120  A    between atoms: _302  and  _304
REMARK  121  A    between atoms: _304  and  _305
REMARK  122  A    between atoms: _304  and  _307
REMARK  123  A    between atoms: _307  and  _308
REMARK  124  A    between atoms: _308  and  _309
REMARK  125  A    between atoms: _309  and  _310
REMARK  126  A    between atoms: _310  and  _311
REMARK  127  A    between atoms: _315  and  _317
REMARK  128  A    between atoms: _317  and  _318
REMARK  129  A    between atoms: _317  and  _320
REMARK  130  A    between atoms: _320  and  _321
REMARK  131  A    between atoms: _326  and  _327
REMARK  132  A    between atoms: _329  and  _331
REMARK  133  A    between atoms: _331  and  _332
REMARK  134  A    between atoms: _331  and  _334
REMARK  135  A    between atoms: _334  and  _335
REMARK  136  A    between atoms: _340  and  _342
REMARK  137  A    between atoms: _342  and  _343
REMARK  138  A    between atoms: _342  and  _345
REMARK  139  A    between atoms: _345  and  _346
REMARK  140  A    between atoms: _349  and  _351
REMARK  141  A    between atoms: _351  and  _352
REMARK  142  A    between atoms: _351  and  _354
REMARK  143  A    between atoms: _354  and  _355
REMARK  144  A    between atoms: _360  and  _362
REMARK  145  A    between atoms: _362  and  _363
REMARK  146  A    between atoms: _362  and  _365
REMARK  147  A    between atoms: _365  and  _366
REMARK  148  A    between atoms: _376  and  _378
REMARK  149  A    between atoms: _378  and  _379
REMARK  150  A    between atoms: _378  and  _381
REMARK  151  A    between atoms: _381  and  _382
REMARK  152  A    between atoms: _388  and  _390
REMARK  153  A    between atoms: _390  and  _391
REMARK  154  A    between atoms: _390  and  _393
REMARK  155  A    between atoms: _393  and  _394
REMARK  156  A    between atoms: _397  and  _399
REMARK  157  A    between atoms: _399  and  _400
REMARK  158  A    between atoms: _399  and  _402
REMARK  159  A    between atoms: _402  and  _403
REMARK  160  A    between atoms: _406  and  _408
REMARK  161  A    between atoms: _408  and  _409
REMARK  162  A    between atoms: _408  and  _411
REMARK  163  A    between atoms: _411  and  _412
REMARK  164  A    between atoms: _412  and  _413
REMARK  165  A    between atoms: _413  and  _414
REMARK  166  A    between atoms: _423  and  _425
REMARK  167  A    between atoms: _425  and  _426
REMARK  168  A    between atoms: _425  and  _428
REMARK  169  A    between atoms: _428  and  _429
REMARK  170  A    between atoms: _434  and  _436
REMARK  171  A    between atoms: _436  and  _437
REMARK  172  A    between atoms: _436  and  _439
REMARK  173  A    between atoms: _439  and  _440
REMARK  174  A    between atoms: _440  and  _441
REMARK  175  A    between atoms: _441  and  _442
REMARK  176  A    between atoms: _451  and  _453
REMARK  177  A    between atoms: _453  and  _454
REMARK  178  A    between atoms: _457  and  _459
REMARK  179  A    between atoms: _459  and  _460
REMARK  180  A    between atoms: _462  and  _464
REMARK  181  A    between atoms: _464  and  _465
REMARK  182  A    between atoms: _464  and  _467
REMARK  183  A    between atoms: _467  and  _468
REMARK  184  A    between atoms: _478  and  _480
REMARK  185  A    between atoms: _480  and  _481
REMARK  186  A    between atoms: _480  and  _483
REMARK  187  A    between atoms: _483  and  _484
REMARK  188  A    between atoms: _485  and  _487
REMARK  189  A    between atoms: _487  and  _488
REMARK  190  A    between atoms: _491  and  _493
REMARK  191  A    between atoms: _493  and  _494
REMARK  192  A    between atoms: _493  and  _496
REMARK  193  A    between atoms: _496  and  _497
REMARK  194  A    between atoms: _500  and  _502
REMARK  195  A    between atoms: _502  and  _503
REMARK  196  A    between atoms: _502  and  _505
REMARK  197  A    between atoms: _505  and  _506
REMARK  198  A    between atoms: _511  and  _512
REMARK  199  A    between atoms: _514  and  _516
REMARK  200  A    between atoms: _516  and  _517
REMARK  201  A    between atoms: _516  and  _519
REMARK  202  A    between atoms: _519  and  _520
REMARK  203  A    between atoms: _522  and  _524
REMARK  204  A    between atoms: _524  and  _525
REMARK  205  A    between atoms: _524  and  _527
REMARK  206  A    between atoms: _527  and  _528
REMARK  207  A    between atoms: _534  and  _536
REMARK  208  A    between atoms: _536  and  _537
REMARK  209  A    between atoms: _536  and  _539
REMARK  210  A    between atoms: _539  and  _540
REMARK  211  A    between atoms: _543  and  _545
REMARK  212  A    between atoms: _545  and  _546
REMARK  213  A    between atoms: _545  and  _548
REMARK  214  A    between atoms: _548  and  _549
REMARK  215  A    between atoms: _551  and  _553
REMARK  216  A    between atoms: _553  and  _554
REMARK  217  A    between atoms: _553  and  _556
REMARK  218  A    between atoms: _556  and  _557
REMARK  219  A    between atoms: _562  and  _564
REMARK  220  A    between atoms: _564  and  _565
REMARK  221  A    between atoms: _564  and  _567
REMARK  222  A    between atoms: _567  and  _568
REMARK  223  A    between atoms: _573  and  _575
REMARK  224  A    between atoms: _575  and  _576
REMARK  225  A    between atoms: _575  and  _578
REMARK  226  A    between atoms: _578  and  _579
REMARK  227  A    between atoms: _582  and  _584
REMARK  228  A    between atoms: _584  and  _585
REMARK  229  A    between atoms: _588  and  _590
REMARK  230  A    between atoms: _590  and  _591
REMARK  231  A    between atoms: _590  and  _593
REMARK  232  A    between atoms: _593  and  _594
REMARK  233  A    between atoms: _599  and  _600
REMARK  234  A    between atoms: _602  and  _604
REMARK  235  A    between atoms: _604  and  _605
REMARK  236  A    between atoms: _604  and  _607
REMARK  237  A    between atoms: _607  and  _608
REMARK  238  A    between atoms: _613  and  _614
REMARK  239  A    between atoms: _616  and  _618
REMARK  240  A    between atoms: _618  and  _619
REMARK  241  A    between atoms: _618  and  _621
REMARK  242  A    between atoms: _624  and  _626
REMARK  243  A    between atoms: _626  and  _627
REMARK  244  A    between atoms: _626  and  _629
REMARK  245  A    between atoms: _629  and  _630
REMARK  246  A    between atoms: _635  and  _637
REMARK  247  A    between atoms: _637  and  _638
REMARK  248  A    between atoms: _641  and  _643
REMARK  249  A    between atoms: _643  and  _644
REMARK  250  A    between atoms: _643  and  _646
REMARK  251  A    between atoms: _646  and  _647
REMARK  252  A    between atoms: _647  and  _648
REMARK  253  A    between atoms: _648  and  _649
REMARK  254  A    between atoms: _658  and  _660
REMARK  255  A    between atoms: _660  and  _661
REMARK  256  A    between atoms: _660  and  _663
REMARK  257  A    between atoms: _663  and  _664
REMARK  258  A    between atoms: _667  and  _669
REMARK  259  A    between atoms: _669  and  _670
REMARK  260  A    between atoms: _669  and  _672
REMARK  261  A    between atoms: _672  and  _673
REMARK  262  A    between atoms: _676  and  _678
REMARK  263  A    between atoms: _678  and  _679
REMARK  264  A    between atoms: _678  and  _681
REMARK  265  A    between atoms: _681  and  _682
REMARK  266  A    between atoms: _687  and  _689
REMARK  267  A    between atoms: _689  and  _690
REMARK  268  A    between atoms: _689  and  _692
REMARK  269  A    between atoms: _692  and  _693
REMARK                            x       y       z     vdW  Elec       q    Type
REMARK                         _______ _______ _______ _____ _____    ______ ____
ROOT
ATOM      1  O   HOH     1      38.760  35.063  16.728  0.00  0.00    +0.000 OA
ENDROOT
TORSDOF 0
REMARK  Name = ../refined-set-2016/1b7h/1b7h_pocket.pdb
REMARK  269 active torsions:
REMARK  status: ('A' for Active; 'I' for Inactive)
REMARK    1  A    between atoms: _1  and  _3
REMARK    2  A    between atoms: _3  and  _4
REMARK    3  A    between atoms: _6  and  _8
REMARK    4  A    between atoms: _8  and  _9
REMARK    5  A    between atoms: _8  and  _11
REMARK    6  A    between atoms: _11  and  _12
REMARK    7  A    between atoms: _14  and  _16
REMARK    8  A    between atoms: _16  and  _17
REMARK    9  A    between atoms: _16  and  _19
REMARK   10  A    between atoms: _19  and  _20
REMARK   11  A    between atoms: _20  and  _21
REMARK   12  A    between atoms: _26  and  _28
REMARK   13  A    between atoms: _28  and  _29
REMARK   14  A    between atoms: _28  and  _31
REMARK   15  A    between atoms: _31  and  _32
REMARK   16  A    between atoms: _35  and  _37
REMARK   17  A    between atoms: _37  and  _38
REMARK   18  A    between atoms: _37  and  _40
REMARK   19  A    between atoms: _40  and  _41
REMARK   20  A    between atoms: _41  and  _42
REMARK   21  A    between atoms: _45  and  _47
REMARK   22  A    between atoms: _47  and  _48
REMARK   23  A    between atoms: _50  and  _52
REMARK   24  A    between atoms: _52  and  _53
REMARK   25  A    between atoms: _52  and  _55
REMARK   26  A    between atoms: _59  and  _60
REMARK   27  A    between atoms: _65  and  _67
REMARK   28  A    between atoms: _67  and  _68
REMARK   29  A    between atoms: _67  and  _70
REMARK   30  A    between atoms: _70  and  _71
REMARK   31  A    between atoms: _71  and  _72
REMARK   32  A    between atoms: _75  and  _77
REMARK   33  A    between atoms: _77  and  _78
REMARK   34  A    between atoms: _77  and  _80
REMARK   35  A    between atoms: _80  and  _81
REMARK   36  A    between atoms: _83  and  _85
REMARK   37  A    between atoms: _85  and  _86
REMARK   38  A    between atoms: _85  and  _88
REMARK   39  A    between atoms: _88  and  _89
REMARK   40  A    between atoms: _94  and  _96
REMARK   41  A    between atoms: _96  and  _97
REMARK   42  A    between atoms: _96  and  _99
REMARK   43  A    between atoms: _99  and  _100
REMARK   44  A    between atoms: _100  and  _101
REMARK   45  A    between atoms: _101  and  _102
REMARK   46  A    between atoms: _112  and  _113
REMARK   47  A    between atoms: _118  and  _120
REMARK   48  A    between atoms: _120  and  _121
REMARK   49  A    between atoms: _120  and  _123
REMARK   50  A    between atoms: _123  and  _124
REMARK   51  A    between atoms: _129  and  _130
REMARK   52  A    between atoms: _132  and  _134
REMARK   53  A    between atoms: _134  and  _135
REMARK   54  A    between atoms: _134  and  _137
REMARK   55  A    between atoms: _137  and  _138
REMARK   56  A    between atoms: _143  and  _144
REMARK   57  A    between atoms: _146  and  _148
REMARK   58  A    between atoms: _148  and  _149
REMARK   59  A    between atoms: _148  and  _151
REMARK   60  A    between atoms: _154  and  _156
REMARK   61  A    between atoms: _156  and  _157
REMARK   62  A    between atoms: _156  and  _159
REMARK   63  A    between atoms: _159  and  _160
REMARK   64  A    between atoms: _166  and  _167
REMARK   65  A    between atoms: _172  and  _174
REMARK   66  A    between atoms: _174  and  _175
REMARK   67  A    between atoms: _174  and  _177
REMARK   68  A    between atoms: _177  and  _178
REMARK   69  A    between atoms: _180  and  _182
REMARK   70  A    between atoms: _182  and  _183
REMARK   71  A    between atoms: _182  and  _185
REMARK   72  A    between atoms: _185  and  _186
REMARK   73  A    between atoms: _191  and  _192
REMARK   74  A    between atoms: _194  and  _196
REMARK   75  A    between atoms: _196  and  _197
REMARK   76  A    between atoms: _196  and  _199
REMARK   77  A    between atoms: _199  and  _200
REMARK   78  A    between atoms: _205  and  _207
REMARK   79  A    between atoms: _207  and  _208
REMARK   80  A    between atoms: _207  and  _210
REMARK   81  A    between atoms: _210  and  _211
REMARK   82  A    between atoms: _216  and  _218
REMARK   83  A    between atoms: _218  and  _219
REMARK   84  A    between atoms: _218  and  _221
REMARK   85  A    between atoms: _221  and  _222
REMARK   86  A    between atoms: _222  and  _223
REMARK   87  A    between atoms: _225  and  _227
REMARK   88  A    between atoms: _227  and  _228
REMARK   89  A    between atoms: _227  and  _230
REMARK   90  A    between atoms: _230  and  _231
REMARK   91  A    between atoms: _236  and  _237
REMARK   92  A    between atoms: _239  and  _241
REMARK   93  A    between atoms: _241  and  _242
REMARK   94  A    between atoms: _241  and  _244
REMARK   95  A    between atoms: _244  and  _245
REMARK   96  A    between atoms: _248  and  _250
REMARK   97  A    between atoms: _250  and  _251
REMARK   98  A    between atoms: _250  and  _253
REMARK   99  A    between atoms: _253  and  _254
REMARK  100  A    between atoms: _254  and  _484
REMARK  101  A    between atoms: _255  and  _257
REMARK  102  A    between atoms: _257  and  _258
REMARK  103  A    between atoms: _257  and  _260
REMARK  104  A    between atoms: _260  and  _261
REMARK  105  A    between atoms: _264  and  _266
REMARK  106  A    between atoms: _266  and  _267
REMARK  107  A    between atoms: _266  and  _269
REMARK  108  A    between atoms: _269  and  _270
REMARK  109  A    between atoms: _275  and  _276
REMARK  110  A    between atoms: _278  and  _280
REMARK  111  A    between atoms: _280  and  _281
REMARK  112  A    between atoms: _280  and  _283
REMARK  113  A    between atoms: _283  and  _284
REMARK  114  A    between atoms: _289  and  _290
REMARK  115  A    between atoms: _292  and  _294
REMARK  116  A    between atoms: _294  and  _295
REMARK  117  A    between atoms: _294  and  _297
REMARK  118  A    between atoms: _297  and  _298
REMARK  119  A    between atoms: _298  and  _299
REMARK  120  A    between atoms: _302  and  _304
REMARK  121  A    between atoms: _304  and  _305
REMARK  122  A    between atoms: _304  and  _307
REMARK  123  A    between atoms: _307  and  _308
REMARK  124  A    between atoms: _308  and  _309
REMARK  125  A    between atoms: _309  and  _310
REMARK  126  A    between atoms: _310  and  _311
REMARK  127  A    between atoms: _315  and  _317
REMARK  128  A    between atoms: _317  and  _318
REMARK  129  A    between atoms: _317  and  _320
REMARK  130  A    between atoms: _320  and  _321
REMARK  131  A    between atoms: _326  and  _327
REMARK  132  A    between atoms: _329  and  _331
REMARK  133  A    between atoms: _331  and  _332
REMARK  134  A    between atoms: _331  and  _334
REMARK  135  A    between atoms: _334  and  _335
REMARK  136  A    between atoms: _340  and  _342
REMARK  137  A    between atoms: _342  and  _343
REMARK  138  A    between atoms: _342  and  _345
REMARK  139  A    between atoms: _345  and  _346
REMARK  140  A    between atoms: _349  and  _351
REMARK  141  A    between atoms: _351  and  _352
REMARK  142  A    between atoms: _351  and  _354
REMARK  143  A    between atoms: _354  and  _355
REMARK  144  A    between atoms: _360  and  _362
REMARK  145  A    between atoms: _362  and  _363
REMARK  146  A    between atoms: _362  and  _365
REMARK  147  A    between atoms: _365  and  _366
REMARK  148  A    between atoms: _376  and  _378
REMARK  149  A    between atoms: _378  and  _379
REMARK  150  A    between atoms: _378  and  _381
REMARK  151  A    between atoms: _381  and  _382
REMARK  152  A    between atoms: _388  and  _390
REMARK  153  A    between atoms: _390  and  _391
REMARK  154  A    between atoms: _390  and  _393
REMARK  155  A    between atoms: _393  and  _394
REMARK  156  A    between atoms: _397  and  _399
REMARK  157  A    between atoms: _399  and  _400
REMARK  158  A    between atoms: _399  and  _402
REMARK  159  A    between atoms: _402  and  _403
REMARK  160  A    between atoms: _406  and  _408
REMARK  161  A    between atoms: _408  and  _409
REMARK  162  A    between atoms: _408  and  _411
REMARK  163  A    between atoms: _411  and  _412
REMARK  164  A    between atoms: _412  and  _413
REMARK  165  A    between atoms: _413  and  _414
REMARK  166  A    between atoms: _423  and  _425
REMARK  167  A    between atoms: _425  and  _426
REMARK  168  A    between atoms: _425  and  _428
REMARK  169  A    between atoms: _428  and  _429
REMARK  170  A    between atoms: _434  and  _436
REMARK  171  A    between atoms: _436  and  _437
REMARK  172  A    between atoms: _436  and  _439
REMARK  173  A    between atoms: _439  and  _440
REMARK  174  A    between atoms: _440  and  _441
REMARK  175  A    between atoms: _441  and  _442
REMARK  176  A    between atoms: _451  and  _453
REMARK  177  A    between atoms: _453  and  _454
REMARK  178  A    between atoms: _457  and  _459
REMARK  179  A    between atoms: _459  and  _460
REMARK  180  A    between atoms: _462  and  _464
REMARK  181  A    between atoms: _464  and  _465
REMARK  182  A    between atoms: _464  and  _467
REMARK  183  A    between atoms: _467  and  _468
REMARK  184  A    between atoms: _478  and  _480
REMARK  185  A    between atoms: _480  and  _481
REMARK  186  A    between atoms: _480  and  _483
REMARK  187  A    between atoms: _483  and  _484
REMARK  188  A    between atoms: _485  and  _487
REMARK  189  A    between atoms: _487  and  _488
REMARK  190  A    between atoms: _491  and  _493
REMARK  191  A    between atoms: _493  and  _494
REMARK  192  A    between atoms: _493  and  _496
REMARK  193  A    between atoms: _496  and  _497
REMARK  194  A    between atoms: _500  and  _502
REMARK  195  A    between atoms: _502  and  _503
REMARK  196  A    between atoms: _502  and  _505
REMARK  197  A    between atoms: _505  and  _506
REMARK  198  A    between atoms: _511  and  _512
REMARK  199  A    between atoms: _514  and  _516
REMARK  200  A    between atoms: _516  and  _517
REMARK  201  A    between atoms: _516  and  _519
REMARK  202  A    between atoms: _519  and  _520
REMARK  203  A    between atoms: _522  and  _524
REMARK  204  A    between atoms: _524  and  _525
REMARK  205  A    between atoms: _524  and  _527
REMARK  206  A    between atoms: _527  and  _528
REMARK  207  A    between atoms: _534  and  _536
REMARK  208  A    between atoms: _536  and  _537
REMARK  209  A    between atoms: _536  and  _539
REMARK  210  A    between atoms: _539  and  _540
REMARK  211  A    between atoms: _543  and  _545
REMARK  212  A    between atoms: _545  and  _546
REMARK  213  A    between atoms: _545  and  _548
REMARK  214  A    between atoms: _548  and  _549
REMARK  215  A    between atoms: _551  and  _553
REMARK  216  A    between atoms: _553  and  _554
REMARK  217  A    between atoms: _553  and  _556
REMARK  218  A    between atoms: _556  and  _557
REMARK  219  A    between atoms: _562  and  _564
REMARK  220  A    between atoms: _564  and  _565
REMARK  221  A    between atoms: _564  and  _567
REMARK  222  A    between atoms: _567  and  _568
REMARK  223  A    between atoms: _573  and  _575
REMARK  224  A    between atoms: _575  and  _576
REMARK  225  A    between atoms: _575  and  _578
REMARK  226  A    between atoms: _578  and  _579
REMARK  227  A    between atoms: _582  and  _584
REMARK  228  A    between atoms: _584  and  _585
REMARK  229  A    between atoms: _588  and  _590
REMARK  230  A    between atoms: _590  and  _591
REMARK  231  A    between atoms: _590  and  _593
REMARK  232  A    between atoms: _593  and  _594
REMARK  233  A    between atoms: _599  and  _600
REMARK  234  A    between atoms: _602  and  _604
REMARK  235  A    between atoms: _604  and  _605
REMARK  236  A    between atoms: _604  and  _607
REMARK  237  A    between atoms: _607  and  _608
REMARK  238  A    between atoms: _613  and  _614
REMARK  239  A    between atoms: _616  and  _618
REMARK  240  A    between atoms: _618  and  _619
REMARK  241  A    between atoms: _618  and  _621
REMARK  242  A    between atoms: _624  and  _626
REMARK  243  A    between atoms: _626  and  _627
REMARK  244  A    between atoms: _626  and  _629
REMARK  245  A    between atoms: _629  and  _630
REMARK  246  A    between atoms: _635  and  _637
REMARK  247  A    between atoms: _637  and  _638
REMARK  248  A    between atoms: _641  and  _643
REMARK  249  A    between atoms: _643  and  _644
REMARK  250  A    between atoms: _643  and  _646
REMARK  251  A    between atoms: _646  and  _647
REMARK  252  A    between atoms: _647  and  _648
REMARK  253  A    between atoms: _648  and  _649
REMARK  254  A    between atoms: _658  and  _660
REMARK  255  A    between atoms: _660  and  _661
REMARK  256  A    between atoms: _660  and  _663
REMARK  257  A    between atoms: _663  and  _664
REMARK  258  A    between atoms: _667  and  _669
REMARK  259  A    between atoms: _669  and  _670
REMARK  260  A    between atoms: _669  and  _672
REMARK  261  A    between atoms: _672  and  _673
REMARK  262  A    between atoms: _676  and  _678
REMARK  263  A    between atoms: _678  and  _679
REMARK  264  A    between atoms: _678  and  _681
REMARK  265  A    between atoms: _681  and  _682
REMARK  266  A    between atoms: _687  and  _689
REMARK  267  A    between atoms: _689  and  _690
REMARK  268  A    between atoms: _689  and  _692
REMARK  269  A    between atoms: _692  and  _693
REMARK                            x       y       z     vdW  Elec       q    Type
REMARK                         _______ _______ _______ _____ _____    ______ ____
ROOT
ATOM      1  O   HOH     1      48.639  44.026  24.490  0.00  0.00    +0.000 OA
ENDROOT
TORSDOF 0
REMARK  Name = ../refined-set-2016/1b7h/1b7h_pocket.pdb
REMARK  269 active torsions:
REMARK  status: ('A' for Active; 'I' for Inactive)
REMARK    1  A    between atoms: _1  and  _3
REMARK    2  A    between atoms: _3  and  _4
REMARK    3  A    between atoms: _6  and  _8
REMARK    4  A    between atoms: _8  and  _9
REMARK    5  A    between atoms: _8  and  _11
REMARK    6  A    between atoms: _11  and  _12
REMARK    7  A    between atoms: _14  and  _16
REMARK    8  A    between atoms: _16  and  _17
REMARK    9  A    between atoms: _16  and  _19
REMARK   10  A    between atoms: _19  and  _20
REMARK   11  A    between atoms: _20  and  _21
REMARK   12  A    between atoms: _26  and  _28
REMARK   13  A    between atoms: _28  and  _29
REMARK   14  A    between atoms: _28  and  _31
REMARK   15  A    between atoms: _31  and  _32
REMARK   16  A    between atoms: _35  and  _37
REMARK   17  A    between atoms: _37  and  _38
REMARK   18  A    between atoms: _37  and  _40
REMARK   19  A    between atoms: _40  and  _41
REMARK   20  A    between atoms: _41  and  _42
REMARK   21  A    between atoms: _45  and  _47
REMARK   22  A    between atoms: _47  and  _48
REMARK   23  A    between atoms: _50  and  _52
REMARK   24  A    between atoms: _52  and  _53
REMARK   25  A    between atoms: _52  and  _55
REMARK   26  A    between atoms: _59  and  _60
REMARK   27  A    between atoms: _65  and  _67
REMARK   28  A    between atoms: _67  and  _68
REMARK   29  A    between atoms: _67  and  _70
REMARK   30  A    between atoms: _70  and  _71
REMARK   31  A    between atoms: _71  and  _72
REMARK   32  A    between atoms: _75  and  _77
REMARK   33  A    between atoms: _77  and  _78
REMARK   34  A    between atoms: _77  and  _80
REMARK   35  A    between atoms: _80  and  _81
REMARK   36  A    between atoms: _83  and  _85
REMARK   37  A    between atoms: _85  and  _86
REMARK   38  A    between atoms: _85  and  _88
REMARK   39  A    between atoms: _88  and  _89
REMARK   40  A    between atoms: _94  and  _96
REMARK   41  A    between atoms: _96  and  _97
REMARK   42  A    between atoms: _96  and  _99
REMARK   43  A    between atoms: _99  and  _100
REMARK   44  A    between atoms: _100  and  _101
REMARK   45  A    between atoms: _101  and  _102
REMARK   46  A    between atoms: _112  and  _113
REMARK   47  A    between atoms: _118  and  _120
REMARK   48  A    between atoms: _120  and  _121
REMARK   49  A    between atoms: _120  and  _123
REMARK   50  A    between atoms: _123  and  _124
REMARK   51  A    between atoms: _129  and  _130
REMARK   52  A    between atoms: _132  and  _134
REMARK   53  A    between atoms: _134  and  _135
REMARK   54  A    between atoms: _134  and  _137
REMARK   55  A    between atoms: _137  and  _138
REMARK   56  A    between atoms: _143  and  _144
REMARK   57  A    between atoms: _146  and  _148
REMARK   58  A    between atoms: _148  and  _149
REMARK   59  A    between atoms: _148  and  _151
REMARK   60  A    between atoms: _154  and  _156
REMARK   61  A    between atoms: _156  and  _157
REMARK   62  A    between atoms: _156  and  _159
REMARK   63  A    between atoms: _159  and  _160
REMARK   64  A    between atoms: _166  and  _167
REMARK   65  A    between atoms: _172  and  _174
REMARK   66  A    between atoms: _174  and  _175
REMARK   67  A    between atoms: _174  and  _177
REMARK   68  A    between atoms: _177  and  _178
REMARK   69  A    between atoms: _180  and  _182
REMARK   70  A    between atoms: _182  and  _183
REMARK   71  A    between atoms: _182  and  _185
REMARK   72  A    between atoms: _185  and  _186
REMARK   73  A    between atoms: _191  and  _192
REMARK   74  A    between atoms: _194  and  _196
REMARK   75  A    between atoms: _196  and  _197
REMARK   76  A    between atoms: _196  and  _199
REMARK   77  A    between atoms: _199  and  _200
REMARK   78  A    between atoms: _205  and  _207
REMARK   79  A    between atoms: _207  and  _208
REMARK   80  A    between atoms: _207  and  _210
REMARK   81  A    between atoms: _210  and  _211
REMARK   82  A    between atoms: _216  and  _218
REMARK   83  A    between atoms: _218  and  _219
REMARK   84  A    between atoms: _218  and  _221
REMARK   85  A    between atoms: _221  and  _222
REMARK   86  A    between atoms: _222  and  _223
REMARK   87  A    between atoms: _225  and  _227
REMARK   88  A    between atoms: _227  and  _228
REMARK   89  A    between atoms: _227  and  _230
REMARK   90  A    between atoms: _230  and  _231
REMARK   91  A    between atoms: _236  and  _237
REMARK   92  A    between atoms: _239  and  _241
REMARK   93  A    between atoms: _241  and  _242
REMARK   94  A    between atoms: _241  and  _244
REMARK   95  A    between atoms: _244  and  _245
REMARK   96  A    between atoms: _248  and  _250
REMARK   97  A    between atoms: _250  and  _251
REMARK   98  A    between atoms: _250  and  _253
REMARK   99  A    between atoms: _253  and  _254
REMARK  100  A    between atoms: _254  and  _484
REMARK  101  A    between atoms: _255  and  _257
REMARK  102  A    between atoms: _257  and  _258
REMARK  103  A    between atoms: _257  and  _260
REMARK  104  A    between atoms: _260  and  _261
REMARK  105  A    between atoms: _264  and  _266
REMARK  106  A    between atoms: _266  and  _267
REMARK  107  A    between atoms: _266  and  _269
REMARK  108  A    between atoms: _269  and  _270
REMARK  109  A    between atoms: _275  and  _276
REMARK  110  A    between atoms: _278  and  _280
REMARK  111  A    between atoms: _280  and  _281
REMARK  112  A    between atoms: _280  and  _283
REMARK  113  A    between atoms: _283  and  _284
REMARK  114  A    between atoms: _289  and  _290
REMARK  115  A    between atoms: _292  and  _294
REMARK  116  A    between atoms: _294  and  _295
REMARK  117  A    between atoms: _294  and  _297
REMARK  118  A    between atoms: _297  and  _298
REMARK  119  A    between atoms: _298  and  _299
REMARK  120  A    between atoms: _302  and  _304
REMARK  121  A    between atoms: _304  and  _305
REMARK  122  A    between atoms: _304  and  _307
REMARK  123  A    between atoms: _307  and  _308
REMARK  124  A    between atoms: _308  and  _309
REMARK  125  A    between atoms: _309  and  _310
REMARK  126  A    between atoms: _310  and  _311
REMARK  127  A    between atoms: _315  and  _317
REMARK  128  A    between atoms: _317  and  _318
REMARK  129  A    between atoms: _317  and  _320
REMARK  130  A    between atoms: _320  and  _321
REMARK  131  A    between atoms: _326  and  _327
REMARK  132  A    between atoms: _329  and  _331
REMARK  133  A    between atoms: _331  and  _332
REMARK  134  A    between atoms: _331  and  _334
REMARK  135  A    between atoms: _334  and  _335
REMARK  136  A    between atoms: _340  and  _342
REMARK  137  A    between atoms: _342  and  _343
REMARK  138  A    between atoms: _342  and  _345
REMARK  139  A    between atoms: _345  and  _346
REMARK  140  A    between atoms: _349  and  _351
REMARK  141  A    between atoms: _351  and  _352
REMARK  142  A    between atoms: _351  and  _354
REMARK  143  A    between atoms: _354  and  _355
REMARK  144  A    between atoms: _360  and  _362
REMARK  145  A    between atoms: _362  and  _363
REMARK  146  A    between atoms: _362  and  _365
REMARK  147  A    between atoms: _365  and  _366
REMARK  148  A    between atoms: _376  and  _378
REMARK  149  A    between atoms: _378  and  _379
REMARK  150  A    between atoms: _378  and  _381
REMARK  151  A    between atoms: _381  and  _382
REMARK  152  A    between atoms: _388  and  _390
REMARK  153  A    between atoms: _390  and  _391
REMARK  154  A    between atoms: _390  and  _393
REMARK  155  A    between atoms: _393  and  _394
REMARK  156  A    between atoms: _397  and  _399
REMARK  157  A    between atoms: _399  and  _400
REMARK  158  A    between atoms: _399  and  _402
REMARK  159  A    between atoms: _402  and  _403
REMARK  160  A    between atoms: _406  and  _408
REMARK  161  A    between atoms: _408  and  _409
REMARK  162  A    between atoms: _408  and  _411
REMARK  163  A    between atoms: _411  and  _412
REMARK  164  A    between atoms: _412  and  _413
REMARK  165  A    between atoms: _413  and  _414
REMARK  166  A    between atoms: _423  and  _425
REMARK  167  A    between atoms: _425  and  _426
REMARK  168  A    between atoms: _425  and  _428
REMARK  169  A    between atoms: _428  and  _429
REMARK  170  A    between atoms: _434  and  _436
REMARK  171  A    between atoms: _436  and  _437
REMARK  172  A    between atoms: _436  and  _439
REMARK  173  A    between atoms: _439  and  _440
REMARK  174  A    between atoms: _440  and  _441
REMARK  175  A    between atoms: _441  and  _442
REMARK  176  A    between atoms: _451  and  _453
REMARK  177  A    between atoms: _453  and  _454
REMARK  178  A    between atoms: _457  and  _459
REMARK  179  A    between atoms: _459  and  _460
REMARK  180  A    between atoms: _462  and  _464
REMARK  181  A    between atoms: _464  and  _465
REMARK  182  A    between atoms: _464  and  _467
REMARK  183  A    between atoms: _467  and  _468
REMARK  184  A    between atoms: _478  and  _480
REMARK  185  A    between atoms: _480  and  _481
REMARK  186  A    between atoms: _480  and  _483
REMARK  187  A    between atoms: _483  and  _484
REMARK  188  A    between atoms: _485  and  _487
REMARK  189  A    between atoms: _487  and  _488
REMARK  190  A    between atoms: _491  and  _493
REMARK  191  A    between atoms: _493  and  _494
REMARK  192  A    between atoms: _493  and  _496
REMARK  193  A    between atoms: _496  and  _497
REMARK  194  A    between atoms: _500  and  _502
REMARK  195  A    between atoms: _502  and  _503
REMARK  196  A    between atoms: _502  and  _505
REMARK  197  A    between atoms: _505  and  _506
REMARK  198  A    between atoms: _511  and  _512
REMARK  199  A    between atoms: _514  and  _516
REMARK  200  A    between atoms: _516  and  _517
REMARK  201  A    between atoms: _516  and  _519
REMARK  202  A    between atoms: _519  and  _520
REMARK  203  A    between atoms: _522  and  _524
REMARK  204  A    between atoms: _524  and  _525
REMARK  205  A    between atoms: _524  and  _527
REMARK  206  A    between atoms: _527  and  _528
REMARK  207  A    between atoms: _534  and  _536
REMARK  208  A    between atoms: _536  and  _537
REMARK  209  A    between atoms: _536  and  _539
REMARK  210  A    between atoms: _539  and  _540
REMARK  211  A    between atoms: _543  and  _545
REMARK  212  A    between atoms: _545  and  _546
REMARK  213  A    between atoms: _545  and  _548
REMARK  214  A    between atoms: _548  and  _549
REMARK  215  A    between atoms: _551  and  _553
REMARK  216  A    between atoms: _553  and  _554
REMARK  217  A    between atoms: _553  and  _556
REMARK  218  A    between atoms: _556  and  _557
REMARK  219  A    between atoms: _562  and  _564
REMARK  220  A    between atoms: _564  and  _565
REMARK  221  A    between atoms: _564  and  _567
REMARK  222  A    between atoms: _567  and  _568
REMARK  223  A    between atoms: _573  and  _575
REMARK  224  A    between atoms: _575  and  _576
REMARK  225  A    between atoms: _575  and  _578
REMARK  226  A    between atoms: _578  and  _579
REMARK  227  A    between atoms: _582  and  _584
REMARK  228  A    between atoms: _584  and  _585
REMARK  229  A    between atoms: _588  and  _590
REMARK  230  A    between atoms: _590  and  _591
REMARK  231  A    between atoms: _590  and  _593
REMARK  232  A    between atoms: _593  and  _594
REMARK  233  A    between atoms: _599  and  _600
REMARK  234  A    between atoms: _602  and  _604
REMARK  235  A    between atoms: _604  and  _605
REMARK  236  A    between atoms: _604  and  _607
REMARK  237  A    between atoms: _607  and  _608
REMARK  238  A    between atoms: _613  and  _614
REMARK  239  A    between atoms: _616  and  _618
REMARK  240  A    between atoms: _618  and  _619
REMARK  241  A    between atoms: _618  and  _621
REMARK  242  A    between atoms: _624  and  _626
REMARK  243  A    between atoms: _626  and  _627
REMARK  244  A    between atoms: _626  and  _629
REMARK  245  A    between atoms: _629  and  _630
REMARK  246  A    between atoms: _635  and  _637
REMARK  247  A    between atoms: _637  and  _638
REMARK  248  A    between atoms: _641  and  _643
REMARK  249  A    between atoms: _643  and  _644
REMARK  250  A    between atoms: _643  and  _646
REMARK  251  A    between atoms: _646  and  _647
REMARK  252  A    between atoms: _647  and  _648
REMARK  253  A    between atoms: _648  and  _649
REMARK  254  A    between atoms: _658  and  _660
REMARK  255  A    between atoms: _660  and  _661
REMARK  256  A    between atoms: _660  and  _663
REMARK  257  A    between atoms: _663  and  _664
REMARK  258  A    between atoms: _667  and  _669
REMARK  259  A    between atoms: _669  and  _670
REMARK  260  A    between atoms: _669  and  _672
REMARK  261  A    between atoms: _672  and  _673
REMARK  262  A    between atoms: _676  and  _678
REMARK  263  A    between atoms: _678  and  _679
REMARK  264  A    between atoms: _678  and  _681
REMARK  265  A    between atoms: _681  and  _682
REMARK  266  A    between atoms: _687  and  _689
REMARK  267  A    between atoms: _689  and  _690
REMARK  268  A    between atoms: _689  and  _692
REMARK  269  A    between atoms: _692  and  _693
REMARK                            x       y       z     vdW  Elec       q    Type
REMARK                         _______ _______ _______ _____ _____    ______ ____
ROOT
ATOM      1  O   HOH     1      47.606  34.790  26.445  0.00  0.00    +0.000 OA
ENDROOT
TORSDOF 0
REMARK  Name = ../refined-set-2016/1b7h/1b7h_pocket.pdb
REMARK  269 active torsions:
REMARK  status: ('A' for Active; 'I' for Inactive)
REMARK    1  A    between atoms: _1  and  _3
REMARK    2  A    between atoms: _3  and  _4
REMARK    3  A    between atoms: _6  and  _8
REMARK    4  A    between atoms: _8  and  _9
REMARK    5  A    between atoms: _8  and  _11
REMARK    6  A    between atoms: _11  and  _12
REMARK    7  A    between atoms: _14  and  _16
REMARK    8  A    between atoms: _16  and  _17
REMARK    9  A    between atoms: _16  and  _19
REMARK   10  A    between atoms: _19  and  _20
REMARK   11  A    between atoms: _20  and  _21
REMARK   12  A    between atoms: _26  and  _28
REMARK   13  A    between atoms: _28  and  _29
REMARK   14  A    between atoms: _28  and  _31
REMARK   15  A    between atoms: _31  and  _32
REMARK   16  A    between atoms: _35  and  _37
REMARK   17  A    between atoms: _37  and  _38
REMARK   18  A    between atoms: _37  and  _40
REMARK   19  A    between atoms: _40  and  _41
REMARK   20  A    between atoms: _41  and  _42
REMARK   21  A    between atoms: _45  and  _47
REMARK   22  A    between atoms: _47  and  _48
REMARK   23  A    between atoms: _50  and  _52
REMARK   24  A    between atoms: _52  and  _53
REMARK   25  A    between atoms: _52  and  _55
REMARK   26  A    between atoms: _59  and  _60
REMARK   27  A    between atoms: _65  and  _67
REMARK   28  A    between atoms: _67  and  _68
REMARK   29  A    between atoms: _67  and  _70
REMARK   30  A    between atoms: _70  and  _71
REMARK   31  A    between atoms: _71  and  _72
REMARK   32  A    between atoms: _75  and  _77
REMARK   33  A    between atoms: _77  and  _78
REMARK   34  A    between atoms: _77  and  _80
REMARK   35  A    between atoms: _80  and  _81
REMARK   36  A    between atoms: _83  and  _85
REMARK   37  A    between atoms: _85  and  _86
REMARK   38  A    between atoms: _85  and  _88
REMARK   39  A    between atoms: _88  and  _89
REMARK   40  A    between atoms: _94  and  _96
REMARK   41  A    between atoms: _96  and  _97
REMARK   42  A    between atoms: _96  and  _99
REMARK   43  A    between atoms: _99  and  _100
REMARK   44  A    between atoms: _100  and  _101
REMARK   45  A    between atoms: _101  and  _102
REMARK   46  A    between atoms: _112  and  _113
REMARK   47  A    between atoms: _118  and  _120
REMARK   48  A    between atoms: _120  and  _121
REMARK   49  A    between atoms: _120  and  _123
REMARK   50  A    between atoms: _123  and  _124
REMARK   51  A    between atoms: _129  and  _130
REMARK   52  A    between atoms: _132  and  _134
REMARK   53  A    between atoms: _134  and  _135
REMARK   54  A    between atoms: _134  and  _137
REMARK   55  A    between atoms: _137  and  _138
REMARK   56  A    between atoms: _143  and  _144
REMARK   57  A    between atoms: _146  and  _148
REMARK   58  A    between atoms: _148  and  _149
REMARK   59  A    between atoms: _148  and  _151
REMARK   60  A    between atoms: _154  and  _156
REMARK   61  A    between atoms: _156  and  _157
REMARK   62  A    between atoms: _156  and  _159
REMARK   63  A    between atoms: _159  and  _160
REMARK   64  A    between atoms: _166  and  _167
REMARK   65  A    between atoms: _172  and  _174
REMARK   66  A    between atoms: _174  and  _175
REMARK   67  A    between atoms: _174  and  _177
REMARK   68  A    between atoms: _177  and  _178
REMARK   69  A    between atoms: _180  and  _182
REMARK   70  A    between atoms: _182  and  _183
REMARK   71  A    between atoms: _182  and  _185
REMARK   72  A    between atoms: _185  and  _186
REMARK   73  A    between atoms: _191  and  _192
REMARK   74  A    between atoms: _194  and  _196
REMARK   75  A    between atoms: _196  and  _197
REMARK   76  A    between atoms: _196  and  _199
REMARK   77  A    between atoms: _199  and  _200
REMARK   78  A    between atoms: _205  and  _207
REMARK   79  A    between atoms: _207  and  _208
REMARK   80  A    between atoms: _207  and  _210
REMARK   81  A    between atoms: _210  and  _211
REMARK   82  A    between atoms: _216  and  _218
REMARK   83  A    between atoms: _218  and  _219
REMARK   84  A    between atoms: _218  and  _221
REMARK   85  A    between atoms: _221  and  _222
REMARK   86  A    between atoms: _222  and  _223
REMARK   87  A    between atoms: _225  and  _227
REMARK   88  A    between atoms: _227  and  _228
REMARK   89  A    between atoms: _227  and  _230
REMARK   90  A    between atoms: _230  and  _231
REMARK   91  A    between atoms: _236  and  _237
REMARK   92  A    between atoms: _239  and  _241
REMARK   93  A    between atoms: _241  and  _242
REMARK   94  A    between atoms: _241  and  _244
REMARK   95  A    between atoms: _244  and  _245
REMARK   96  A    between atoms: _248  and  _250
REMARK   97  A    between atoms: _250  and  _251
REMARK   98  A    between atoms: _250  and  _253
REMARK   99  A    between atoms: _253  and  _254
REMARK  100  A    between atoms: _254  and  _484
REMARK  101  A    between atoms: _255  and  _257
REMARK  102  A    between atoms: _257  and  _258
REMARK  103  A    between atoms: _257  and  _260
REMARK  104  A    between atoms: _260  and  _261
REMARK  105  A    between atoms: _264  and  _266
REMARK  106  A    between atoms: _266  and  _267
REMARK  107  A    between atoms: _266  and  _269
REMARK  108  A    between atoms: _269  and  _270
REMARK  109  A    between atoms: _275  and  _276
REMARK  110  A    between atoms: _278  and  _280
REMARK  111  A    between atoms: _280  and  _281
REMARK  112  A    between atoms: _280  and  _283
REMARK  113  A    between atoms: _283  and  _284
REMARK  114  A    between atoms: _289  and  _290
REMARK  115  A    between atoms: _292  and  _294
REMARK  116  A    between atoms: _294  and  _295
REMARK  117  A    between atoms: _294  and  _297
REMARK  118  A    between atoms: _297  and  _298
REMARK  119  A    between atoms: _298  and  _299
REMARK  120  A    between atoms: _302  and  _304
REMARK  121  A    between atoms: _304  and  _305
REMARK  122  A    between atoms: _304  and  _307
REMARK  123  A    between atoms: _307  and  _308
REMARK  124  A    between atoms: _308  and  _309
REMARK  125  A    between atoms: _309  and  _310
REMARK  126  A    between atoms: _310  and  _311
REMARK  127  A    between atoms: _315  and  _317
REMARK  128  A    between atoms: _317  and  _318
REMARK  129  A    between atoms: _317  and  _320
REMARK  130  A    between atoms: _320  and  _321
REMARK  131  A    between atoms: _326  and  _327
REMARK  132  A    between atoms: _329  and  _331
REMARK  133  A    between atoms: _331  and  _332
REMARK  134  A    between atoms: _331  and  _334
REMARK  135  A    between atoms: _334  and  _335
REMARK  136  A    between atoms: _340  and  _342
REMARK  137  A    between atoms: _342  and  _343
REMARK  138  A    between atoms: _342  and  _345
REMARK  139  A    between atoms: _345  and  _346
REMARK  140  A    between atoms: _349  and  _351
REMARK  141  A    between atoms: _351  and  _352
REMARK  142  A    between atoms: _351  and  _354
REMARK  143  A    between atoms: _354  and  _355
REMARK  144  A    between atoms: _360  and  _362
REMARK  145  A    between atoms: _362  and  _363
REMARK  146  A    between atoms: _362  and  _365
REMARK  147  A    between atoms: _365  and  _366
REMARK  148  A    between atoms: _376  and  _378
REMARK  149  A    between atoms: _378  and  _379
REMARK  150  A    between atoms: _378  and  _381
REMARK  151  A    between atoms: _381  and  _382
REMARK  152  A    between atoms: _388  and  _390
REMARK  153  A    between atoms: _390  and  _391
REMARK  154  A    between atoms: _390  and  _393
REMARK  155  A    between atoms: _393  and  _394
REMARK  156  A    between atoms: _397  and  _399
REMARK  157  A    between atoms: _399  and  _400
REMARK  158  A    between atoms: _399  and  _402
REMARK  159  A    between atoms: _402  and  _403
REMARK  160  A    between atoms: _406  and  _408
REMARK  161  A    between atoms: _408  and  _409
REMARK  162  A    between atoms: _408  and  _411
REMARK  163  A    between atoms: _411  and  _412
REMARK  164  A    between atoms: _412  and  _413
REMARK  165  A    between atoms: _413  and  _414
REMARK  166  A    between atoms: _423  and  _425
REMARK  167  A    between atoms: _425  and  _426
REMARK  168  A    between atoms: _425  and  _428
REMARK  169  A    between atoms: _428  and  _429
REMARK  170  A    between atoms: _434  and  _436
REMARK  171  A    between atoms: _436  and  _437
REMARK  172  A    between atoms: _436  and  _439
REMARK  173  A    between atoms: _439  and  _440
REMARK  174  A    between atoms: _440  and  _441
REMARK  175  A    between atoms: _441  and  _442
REMARK  176  A    between atoms: _451  and  _453
REMARK  177  A    between atoms: _453  and  _454
REMARK  178  A    between atoms: _457  and  _459
REMARK  179  A    between atoms: _459  and  _460
REMARK  180  A    between atoms: _462  and  _464
REMARK  181  A    between atoms: _464  and  _465
REMARK  182  A    between atoms: _464  and  _467
REMARK  183  A    between atoms: _467  and  _468
REMARK  184  A    between atoms: _478  and  _480
REMARK  185  A    between atoms: _480  and  _481
REMARK  186  A    between atoms: _480  and  _483
REMARK  187  A    between atoms: _483  and  _484
REMARK  188  A    between atoms: _485  and  _487
REMARK  189  A    between atoms: _487  and  _488
REMARK  190  A    between atoms: _491  and  _493
REMARK  191  A    between atoms: _493  and  _494
REMARK  192  A    between atoms: _493  and  _496
REMARK  193  A    between atoms: _496  and  _497
REMARK  194  A    between atoms: _500  and  _502
REMARK  195  A    between atoms: _502  and  _503
REMARK  196  A    between atoms: _502  and  _505
REMARK  197  A    between atoms: _505  and  _506
REMARK  198  A    between atoms: _511  and  _512
REMARK  199  A    between atoms: _514  and  _516
REMARK  200  A    between atoms: _516  and  _517
REMARK  201  A    between atoms: _516  and  _519
REMARK  202  A    between atoms: _519  and  _520
REMARK  203  A    between atoms: _522  and  _524
REMARK  204  A    between atoms: _524  and  _525
REMARK  205  A    between atoms: _524  and  _527
REMARK  206  A    between atoms: _527  and  _528
REMARK  207  A    between atoms: _534  and  _536
REMARK  208  A    between atoms: _536  and  _537
REMARK  209  A    between atoms: _536  and  _539
REMARK  210  A    between atoms: _539  and  _540
REMARK  211  A    between atoms: _543  and  _545
REMARK  212  A    between atoms: _545  and  _546
REMARK  213  A    between atoms: _545  and  _548
REMARK  214  A    between atoms: _548  and  _549
REMARK  215  A    between atoms: _551  and  _553
REMARK  216  A    between atoms: _553  and  _554
REMARK  217  A    between atoms: _553  and  _556
REMARK  218  A    between atoms: _556  and  _557
REMARK  219  A    between atoms: _562  and  _564
REMARK  220  A    between atoms: _564  and  _565
REMARK  221  A    between atoms: _564  and  _567
REMARK  222  A    between atoms: _567  and  _568
REMARK  223  A    between atoms: _573  and  _575
REMARK  224  A    between atoms: _575  and  _576
REMARK  225  A    between atoms: _575  and  _578
REMARK  226  A    between atoms: _578  and  _579
REMARK  227  A    between atoms: _582  and  _584
REMARK  228  A    between atoms: _584  and  _585
REMARK  229  A    between atoms: _588  and  _590
REMARK  230  A    between atoms: _590  and  _591
REMARK  231  A    between atoms: _590  and  _593
REMARK  232  A    between atoms: _593  and  _594
REMARK  233  A    between atoms: _599  and  _600
REMARK  234  A    between atoms: _602  and  _604
REMARK  235  A    between atoms: _604  and  _605
REMARK  236  A    between atoms: _604  and  _607
REMARK  237  A    between atoms: _607  and  _608
REMARK  238  A    between atoms: _613  and  _614
REMARK  239  A    between atoms: _616  and  _618
REMARK  240  A    between atoms: _618  and  _619
REMARK  241  A    between atoms: _618  and  _621
REMARK  242  A    between atoms: _624  and  _626
REMARK  243  A    between atoms: _626  and  _627
REMARK  244  A    between atoms: _626  and  _629
REMARK  245  A    between atoms: _629  and  _630
REMARK  246  A    between atoms: _635  and  _637
REMARK  247  A    between atoms: _637  and  _638
REMARK  248  A    between atoms: _641  and  _643
REMARK  249  A    between atoms: _643  and  _644
REMARK  250  A    between atoms: _643  and  _646
REMARK  251  A    between atoms: _646  and  _647
REMARK  252  A    between atoms: _647  and  _648
REMARK  253  A    between atoms: _648  and  _649
REMARK  254  A    between atoms: _658  and  _660
REMARK  255  A    between atoms: _660  and  _661
REMARK  256  A    between atoms: _660  and  _663
REMARK  257  A    between atoms: _663  and  _664
REMARK  258  A    between atoms: _667  and  _669
REMARK  259  A    between atoms: _669  and  _670
REMARK  260  A    between atoms: _669  and  _672
REMARK  261  A    between atoms: _672  and  _673
REMARK  262  A    between atoms: _676  and  _678
REMARK  263  A    between atoms: _678  and  _679
REMARK  264  A    between atoms: _678  and  _681
REMARK  265  A    between atoms: _681  and  _682
REMARK  266  A    between atoms: _687  and  _689
REMARK  267  A    between atoms: _689  and  _690
REMARK  268  A    between atoms: _689  and  _692
REMARK  269  A    between atoms: _692  and  _693
REMARK                            x       y       z     vdW  Elec       q    Type
REMARK                         _______ _______ _______ _____ _____    ______ ____
ROOT
ATOM      1  O   HOH     1      36.605  33.745  17.190  0.00  0.00    +0.000 OA
ENDROOT
TORSDOF 0
REMARK  Name = ../refined-set-2016/1b7h/1b7h_pocket.pdb
REMARK  269 active torsions:
REMARK  status: ('A' for Active; 'I' for Inactive)
REMARK    1  A    between atoms: _1  and  _3
REMARK    2  A    between atoms: _3  and  _4
REMARK    3  A    between atoms: _6  and  _8
REMARK    4  A    between atoms: _8  and  _9
REMARK    5  A    between atoms: _8  and  _11
REMARK    6  A    between atoms: _11  and  _12
REMARK    7  A    between atoms: _14  and  _16
REMARK    8  A    between atoms: _16  and  _17
REMARK    9  A    between atoms: _16  and  _19
REMARK   10  A    between atoms: _19  and  _20
REMARK   11  A    between atoms: _20  and  _21
REMARK   12  A    between atoms: _26  and  _28
REMARK   13  A    between atoms: _28  and  _29
REMARK   14  A    between atoms: _28  and  _31
REMARK   15  A    between atoms: _31  and  _32
REMARK   16  A    between atoms: _35  and  _37
REMARK   17  A    between atoms: _37  and  _38
REMARK   18  A    between atoms: _37  and  _40
REMARK   19  A    between atoms: _40  and  _41
REMARK   20  A    between atoms: _41  and  _42
REMARK   21  A    between atoms: _45  and  _47
REMARK   22  A    between atoms: _47  and  _48
REMARK   23  A    between atoms: _50  and  _52
REMARK   24  A    between atoms: _52  and  _53
REMARK   25  A    between atoms: _52  and  _55
REMARK   26  A    between atoms: _59  and  _60
REMARK   27  A    between atoms: _65  and  _67
REMARK   28  A    between atoms: _67  and  _68
REMARK   29  A    between atoms: _67  and  _70
REMARK   30  A    between atoms: _70  and  _71
REMARK   31  A    between atoms: _71  and  _72
REMARK   32  A    between atoms: _75  and  _77
REMARK   33  A    between atoms: _77  and  _78
REMARK   34  A    between atoms: _77  and  _80
REMARK   35  A    between atoms: _80  and  _81
REMARK   36  A    between atoms: _83  and  _85
REMARK   37  A    between atoms: _85  and  _86
REMARK   38  A    between atoms: _85  and  _88
REMARK   39  A    between atoms: _88  and  _89
REMARK   40  A    between atoms: _94  and  _96
REMARK   41  A    between atoms: _96  and  _97
REMARK   42  A    between atoms: _96  and  _99
REMARK   43  A    between atoms: _99  and  _100
REMARK   44  A    between atoms: _100  and  _101
REMARK   45  A    between atoms: _101  and  _102
REMARK   46  A    between atoms: _112  and  _113
REMARK   47  A    between atoms: _118  and  _120
REMARK   48  A    between atoms: _120  and  _121
REMARK   49  A    between atoms: _120  and  _123
REMARK   50  A    between atoms: _123  and  _124
REMARK   51  A    between atoms: _129  and  _130
REMARK   52  A    between atoms: _132  and  _134
REMARK   53  A    between atoms: _134  and  _135
REMARK   54  A    between atoms: _134  and  _137
REMARK   55  A    between atoms: _137  and  _138
REMARK   56  A    between atoms: _143  and  _144
REMARK   57  A    between atoms: _146  and  _148
REMARK   58  A    between atoms: _148  and  _149
REMARK   59  A    between atoms: _148  and  _151
REMARK   60  A    between atoms: _154  and  _156
REMARK   61  A    between atoms: _156  and  _157
REMARK   62  A    between atoms: _156  and  _159
REMARK   63  A    between atoms: _159  and  _160
REMARK   64  A    between atoms: _166  and  _167
REMARK   65  A    between atoms: _172  and  _174
REMARK   66  A    between atoms: _174  and  _175
REMARK   67  A    between atoms: _174  and  _177
REMARK   68  A    between atoms: _177  and  _178
REMARK   69  A    between atoms: _180  and  _182
REMARK   70  A    between atoms: _182  and  _183
REMARK   71  A    between atoms: _182  and  _185
REMARK   72  A    between atoms: _185  and  _186
REMARK   73  A    between atoms: _191  and  _192
REMARK   74  A    between atoms: _194  and  _196
REMARK   75  A    between atoms: _196  and  _197
REMARK   76  A    between atoms: _196  and  _199
REMARK   77  A    between atoms: _199  and  _200
REMARK   78  A    between atoms: _205  and  _207
REMARK   79  A    between atoms: _207  and  _208
REMARK   80  A    between atoms: _207  and  _210
REMARK   81  A    between atoms: _210  and  _211
REMARK   82  A    between atoms: _216  and  _218
REMARK   83  A    between atoms: _218  and  _219
REMARK   84  A    between atoms: _218  and  _221
REMARK   85  A    between atoms: _221  and  _222
REMARK   86  A    between atoms: _222  and  _223
REMARK   87  A    between atoms: _225  and  _227
REMARK   88  A    between atoms: _227  and  _228
REMARK   89  A    between atoms: _227  and  _230
REMARK   90  A    between atoms: _230  and  _231
REMARK   91  A    between atoms: _236  and  _237
REMARK   92  A    between atoms: _239  and  _241
REMARK   93  A    between atoms: _241  and  _242
REMARK   94  A    between atoms: _241  and  _244
REMARK   95  A    between atoms: _244  and  _245
REMARK   96  A    between atoms: _248  and  _250
REMARK   97  A    between atoms: _250  and  _251
REMARK   98  A    between atoms: _250  and  _253
REMARK   99  A    between atoms: _253  and  _254
REMARK  100  A    between atoms: _254  and  _484
REMARK  101  A    between atoms: _255  and  _257
REMARK  102  A    between atoms: _257  and  _258
REMARK  103  A    between atoms: _257  and  _260
REMARK  104  A    between atoms: _260  and  _261
REMARK  105  A    between atoms: _264  and  _266
REMARK  106  A    between atoms: _266  and  _267
REMARK  107  A    between atoms: _266  and  _269
REMARK  108  A    between atoms: _269  and  _270
REMARK  109  A    between atoms: _275  and  _276
REMARK  110  A    between atoms: _278  and  _280
REMARK  111  A    between atoms: _280  and  _281
REMARK  112  A    between atoms: _280  and  _283
REMARK  113  A    between atoms: _283  and  _284
REMARK  114  A    between atoms: _289  and  _290
REMARK  115  A    between atoms: _292  and  _294
REMARK  116  A    between atoms: _294  and  _295
REMARK  117  A    between atoms: _294  and  _297
REMARK  118  A    between atoms: _297  and  _298
REMARK  119  A    between atoms: _298  and  _299
REMARK  120  A    between atoms: _302  and  _304
REMARK  121  A    between atoms: _304  and  _305
REMARK  122  A    between atoms: _304  and  _307
REMARK  123  A    between atoms: _307  and  _308
REMARK  124  A    between atoms: _308  and  _309
REMARK  125  A    between atoms: _309  and  _310
REMARK  126  A    between atoms: _310  and  _311
REMARK  127  A    between atoms: _315  and  _317
REMARK  128  A    between atoms: _317  and  _318
REMARK  129  A    between atoms: _317  and  _320
REMARK  130  A    between atoms: _320  and  _321
REMARK  131  A    between atoms: _326  and  _327
REMARK  132  A    between atoms: _329  and  _331
REMARK  133  A    between atoms: _331  and  _332
REMARK  134  A    between atoms: _331  and  _334
REMARK  135  A    between atoms: _334  and  _335
REMARK  136  A    between atoms: _340  and  _342
REMARK  137  A    between atoms: _342  and  _343
REMARK  138  A    between atoms: _342  and  _345
REMARK  139  A    between atoms: _345  and  _346
REMARK  140  A    between atoms: _349  and  _351
REMARK  141  A    between atoms: _351  and  _352
REMARK  142  A    between atoms: _351  and  _354
REMARK  143  A    between atoms: _354  and  _355
REMARK  144  A    between atoms: _360  and  _362
REMARK  145  A    between atoms: _362  and  _363
REMARK  146  A    between atoms: _362  and  _365
REMARK  147  A    between atoms: _365  and  _366
REMARK  148  A    between atoms: _376  and  _378
REMARK  149  A    between atoms: _378  and  _379
REMARK  150  A    between atoms: _378  and  _381
REMARK  151  A    between atoms: _381  and  _382
REMARK  152  A    between atoms: _388  and  _390
REMARK  153  A    between atoms: _390  and  _391
REMARK  154  A    between atoms: _390  and  _393
REMARK  155  A    between atoms: _393  and  _394
REMARK  156  A    between atoms: _397  and  _399
REMARK  157  A    between atoms: _399  and  _400
REMARK  158  A    between atoms: _399  and  _402
REMARK  159  A    between atoms: _402  and  _403
REMARK  160  A    between atoms: _406  and  _408
REMARK  161  A    between atoms: _408  and  _409
REMARK  162  A    between atoms: _408  and  _411
REMARK  163  A    between atoms: _411  and  _412
REMARK  164  A    between atoms: _412  and  _413
REMARK  165  A    between atoms: _413  and  _414
REMARK  166  A    between atoms: _423  and  _425
REMARK  167  A    between atoms: _425  and  _426
REMARK  168  A    between atoms: _425  and  _428
REMARK  169  A    between atoms: _428  and  _429
REMARK  170  A    between atoms: _434  and  _436
REMARK  171  A    between atoms: _436  and  _437
REMARK  172  A    between atoms: _436  and  _439
REMARK  173  A    between atoms: _439  and  _440
REMARK  174  A    between atoms: _440  and  _441
REMARK  175  A    between atoms: _441  and  _442
REMARK  176  A    between atoms: _451  and  _453
REMARK  177  A    between atoms: _453  and  _454
REMARK  178  A    between atoms: _457  and  _459
REMARK  179  A    between atoms: _459  and  _460
REMARK  180  A    between atoms: _462  and  _464
REMARK  181  A    between atoms: _464  and  _465
REMARK  182  A    between atoms: _464  and  _467
REMARK  183  A    between atoms: _467  and  _468
REMARK  184  A    between atoms: _478  and  _480
REMARK  185  A    between atoms: _480  and  _481
REMARK  186  A    between atoms: _480  and  _483
REMARK  187  A    between atoms: _483  and  _484
REMARK  188  A    between atoms: _485  and  _487
REMARK  189  A    between atoms: _487  and  _488
REMARK  190  A    between atoms: _491  and  _493
REMARK  191  A    between atoms: _493  and  _494
REMARK  192  A    between atoms: _493  and  _496
REMARK  193  A    between atoms: _496  and  _497
REMARK  194  A    between atoms: _500  and  _502
REMARK  195  A    between atoms: _502  and  _503
REMARK  196  A    between atoms: _502  and  _505
REMARK  197  A    between atoms: _505  and  _506
REMARK  198  A    between atoms: _511  and  _512
REMARK  199  A    between atoms: _514  and  _516
REMARK  200  A    between atoms: _516  and  _517
REMARK  201  A    between atoms: _516  and  _519
REMARK  202  A    between atoms: _519  and  _520
REMARK  203  A    between atoms: _522  and  _524
REMARK  204  A    between atoms: _524  and  _525
REMARK  205  A    between atoms: _524  and  _527
REMARK  206  A    between atoms: _527  and  _528
REMARK  207  A    between atoms: _534  and  _536
REMARK  208  A    between atoms: _536  and  _537
REMARK  209  A    between atoms: _536  and  _539
REMARK  210  A    between atoms: _539  and  _540
REMARK  211  A    between atoms: _543  and  _545
REMARK  212  A    between atoms: _545  and  _546
REMARK  213  A    between atoms: _545  and  _548
REMARK  214  A    between atoms: _548  and  _549
REMARK  215  A    between atoms: _551  and  _553
REMARK  216  A    between atoms: _553  and  _554
REMARK  217  A    between atoms: _553  and  _556
REMARK  218  A    between atoms: _556  and  _557
REMARK  219  A    between atoms: _562  and  _564
REMARK  220  A    between atoms: _564  and  _565
REMARK  221  A    between atoms: _564  and  _567
REMARK  222  A    between atoms: _567  and  _568
REMARK  223  A    between atoms: _573  and  _575
REMARK  224  A    between atoms: _575  and  _576
REMARK  225  A    between atoms: _575  and  _578
REMARK  226  A    between atoms: _578  and  _579
REMARK  227  A    between atoms: _582  and  _584
REMARK  228  A    between atoms: _584  and  _585
REMARK  229  A    between atoms: _588  and  _590
REMARK  230  A    between atoms: _590  and  _591
REMARK  231  A    between atoms: _590  and  _593
REMARK  232  A    between atoms: _593  and  _594
REMARK  233  A    between atoms: _599  and  _600
REMARK  234  A    between atoms: _602  and  _604
REMARK  235  A    between atoms: _604  and  _605
REMARK  236  A    between atoms: _604  and  _607
REMARK  237  A    between atoms: _607  and  _608
REMARK  238  A    between atoms: _613  and  _614
REMARK  239  A    between atoms: _616  and  _618
REMARK  240  A    between atoms: _618  and  _619
REMARK  241  A    between atoms: _618  and  _621
REMARK  242  A    between atoms: _624  and  _626
REMARK  243  A    between atoms: _626  and  _627
REMARK  244  A    between atoms: _626  and  _629
REMARK  245  A    between atoms: _629  and  _630
REMARK  246  A    between atoms: _635  and  _637
REMARK  247  A    between atoms: _637  and  _638
REMARK  248  A    between atoms: _641  and  _643
REMARK  249  A    between atoms: _643  and  _644
REMARK  250  A    between atoms: _643  and  _646
REMARK  251  A    between atoms: _646  and  _647
REMARK  252  A    between atoms: _647  and  _648
REMARK  253  A    between atoms: _648  and  _649
REMARK  254  A    between atoms: _658  and  _660
REMARK  255  A    between atoms: _660  and  _661
REMARK  256  A    between atoms: _660  and  _663
REMARK  257  A    between atoms: _663  and  _664
REMARK  258  A    between atoms: _667  and  _669
REMARK  259  A    between atoms: _669  and  _670
REMARK  260  A    between atoms: _669  and  _672
REMARK  261  A    between atoms: _672  and  _673
REMARK  262  A    between atoms: _676  and  _678
REMARK  263  A    between atoms: _678  and  _679
REMARK  264  A    between atoms: _678  and  _681
REMARK  265  A    between atoms: _681  and  _682
REMARK  266  A    between atoms: _687  and  _689
REMARK  267  A    between atoms: _689  and  _690
REMARK  268  A    between atoms: _689  and  _692
REMARK  269  A    between atoms: _692  and  _693
REMARK                            x       y       z     vdW  Elec       q    Type
REMARK                         _______ _______ _______ _____ _____    ______ ____
ROOT
ATOM      1  O   HOH     1      36.600  33.012  19.726  0.00  0.00    +0.000 OA
ENDROOT
TORSDOF 0
REMARK  Name = ../refined-set-2016/1b7h/1b7h_pocket.pdb
REMARK  269 active torsions:
REMARK  status: ('A' for Active; 'I' for Inactive)
REMARK    1  A    between atoms: _1  and  _3
REMARK    2  A    between atoms: _3  and  _4
REMARK    3  A    between atoms: _6  and  _8
REMARK    4  A    between atoms: _8  and  _9
REMARK    5  A    between atoms: _8  and  _11
REMARK    6  A    between atoms: _11  and  _12
REMARK    7  A    between atoms: _14  and  _16
REMARK    8  A    between atoms: _16  and  _17
REMARK    9  A    between atoms: _16  and  _19
REMARK   10  A    between atoms: _19  and  _20
REMARK   11  A    between atoms: _20  and  _21
REMARK   12  A    between atoms: _26  and  _28
REMARK   13  A    between atoms: _28  and  _29
REMARK   14  A    between atoms: _28  and  _31
REMARK   15  A    between atoms: _31  and  _32
REMARK   16  A    between atoms: _35  and  _37
REMARK   17  A    between atoms: _37  and  _38
REMARK   18  A    between atoms: _37  and  _40
REMARK   19  A    between atoms: _40  and  _41
REMARK   20  A    between atoms: _41  and  _42
REMARK   21  A    between atoms: _45  and  _47
REMARK   22  A    between atoms: _47  and  _48
REMARK   23  A    between atoms: _50  and  _52
REMARK   24  A    between atoms: _52  and  _53
REMARK   25  A    between atoms: _52  and  _55
REMARK   26  A    between atoms: _59  and  _60
REMARK   27  A    between atoms: _65  and  _67
REMARK   28  A    between atoms: _67  and  _68
REMARK   29  A    between atoms: _67  and  _70
REMARK   30  A    between atoms: _70  and  _71
REMARK   31  A    between atoms: _71  and  _72
REMARK   32  A    between atoms: _75  and  _77
REMARK   33  A    between atoms: _77  and  _78
REMARK   34  A    between atoms: _77  and  _80
REMARK   35  A    between atoms: _80  and  _81
REMARK   36  A    between atoms: _83  and  _85
REMARK   37  A    between atoms: _85  and  _86
REMARK   38  A    between atoms: _85  and  _88
REMARK   39  A    between atoms: _88  and  _89
REMARK   40  A    between atoms: _94  and  _96
REMARK   41  A    between atoms: _96  and  _97
REMARK   42  A    between atoms: _96  and  _99
REMARK   43  A    between atoms: _99  and  _100
REMARK   44  A    between atoms: _100  and  _101
REMARK   45  A    between atoms: _101  and  _102
REMARK   46  A    between atoms: _112  and  _113
REMARK   47  A    between atoms: _118  and  _120
REMARK   48  A    between atoms: _120  and  _121
REMARK   49  A    between atoms: _120  and  _123
REMARK   50  A    between atoms: _123  and  _124
REMARK   51  A    between atoms: _129  and  _130
REMARK   52  A    between atoms: _132  and  _134
REMARK   53  A    between atoms: _134  and  _135
REMARK   54  A    between atoms: _134  and  _137
REMARK   55  A    between atoms: _137  and  _138
REMARK   56  A    between atoms: _143  and  _144
REMARK   57  A    between atoms: _146  and  _148
REMARK   58  A    between atoms: _148  and  _149
REMARK   59  A    between atoms: _148  and  _151
REMARK   60  A    between atoms: _154  and  _156
REMARK   61  A    between atoms: _156  and  _157
REMARK   62  A    between atoms: _156  and  _159
REMARK   63  A    between atoms: _159  and  _160
REMARK   64  A    between atoms: _166  and  _167
REMARK   65  A    between atoms: _172  and  _174
REMARK   66  A    between atoms: _174  and  _175
REMARK   67  A    between atoms: _174  and  _177
REMARK   68  A    between atoms: _177  and  _178
REMARK   69  A    between atoms: _180  and  _182
REMARK   70  A    between atoms: _182  and  _183
REMARK   71  A    between atoms: _182  and  _185
REMARK   72  A    between atoms: _185  and  _186
REMARK   73  A    between atoms: _191  and  _192
REMARK   74  A    between atoms: _194  and  _196
REMARK   75  A    between atoms: _196  and  _197
REMARK   76  A    between atoms: _196  and  _199
REMARK   77  A    between atoms: _199  and  _200
REMARK   78  A    between atoms: _205  and  _207
REMARK   79  A    between atoms: _207  and  _208
REMARK   80  A    between atoms: _207  and  _210
REMARK   81  A    between atoms: _210  and  _211
REMARK   82  A    between atoms: _216  and  _218
REMARK   83  A    between atoms: _218  and  _219
REMARK   84  A    between atoms: _218  and  _221
REMARK   85  A    between atoms: _221  and  _222
REMARK   86  A    between atoms: _222  and  _223
REMARK   87  A    between atoms: _225  and  _227
REMARK   88  A    between atoms: _227  and  _228
REMARK   89  A    between atoms: _227  and  _230
REMARK   90  A    between atoms: _230  and  _231
REMARK   91  A    between atoms: _236  and  _237
REMARK   92  A    between atoms: _239  and  _241
REMARK   93  A    between atoms: _241  and  _242
REMARK   94  A    between atoms: _241  and  _244
REMARK   95  A    between atoms: _244  and  _245
REMARK   96  A    between atoms: _248  and  _250
REMARK   97  A    between atoms: _250  and  _251
REMARK   98  A    between atoms: _250  and  _253
REMARK   99  A    between atoms: _253  and  _254
REMARK  100  A    between atoms: _254  and  _484
REMARK  101  A    between atoms: _255  and  _257
REMARK  102  A    between atoms: _257  and  _258
REMARK  103  A    between atoms: _257  and  _260
REMARK  104  A    between atoms: _260  and  _261
REMARK  105  A    between atoms: _264  and  _266
REMARK  106  A    between atoms: _266  and  _267
REMARK  107  A    between atoms: _266  and  _269
REMARK  108  A    between atoms: _269  and  _270
REMARK  109  A    between atoms: _275  and  _276
REMARK  110  A    between atoms: _278  and  _280
REMARK  111  A    between atoms: _280  and  _281
REMARK  112  A    between atoms: _280  and  _283
REMARK  113  A    between atoms: _283  and  _284
REMARK  114  A    between atoms: _289  and  _290
REMARK  115  A    between atoms: _292  and  _294
REMARK  116  A    between atoms: _294  and  _295
REMARK  117  A    between atoms: _294  and  _297
REMARK  118  A    between atoms: _297  and  _298
REMARK  119  A    between atoms: _298  and  _299
REMARK  120  A    between atoms: _302  and  _304
REMARK  121  A    between atoms: _304  and  _305
REMARK  122  A    between atoms: _304  and  _307
REMARK  123  A    between atoms: _307  and  _308
REMARK  124  A    between atoms: _308  and  _309
REMARK  125  A    between atoms: _309  and  _310
REMARK  126  A    between atoms: _310  and  _311
REMARK  127  A    between atoms: _315  and  _317
REMARK  128  A    between atoms: _317  and  _318
REMARK  129  A    between atoms: _317  and  _320
REMARK  130  A    between atoms: _320  and  _321
REMARK  131  A    between atoms: _326  and  _327
REMARK  132  A    between atoms: _329  and  _331
REMARK  133  A    between atoms: _331  and  _332
REMARK  134  A    between atoms: _331  and  _334
REMARK  135  A    between atoms: _334  and  _335
REMARK  136  A    between atoms: _340  and  _342
REMARK  137  A    between atoms: _342  and  _343
REMARK  138  A    between atoms: _342  and  _345
REMARK  139  A    between atoms: _345  and  _346
REMARK  140  A    between atoms: _349  and  _351
REMARK  141  A    between atoms: _351  and  _352
REMARK  142  A    between atoms: _351  and  _354
REMARK  143  A    between atoms: _354  and  _355
REMARK  144  A    between atoms: _360  and  _362
REMARK  145  A    between atoms: _362  and  _363
REMARK  146  A    between atoms: _362  and  _365
REMARK  147  A    between atoms: _365  and  _366
REMARK  148  A    between atoms: _376  and  _378
REMARK  149  A    between atoms: _378  and  _379
REMARK  150  A    between atoms: _378  and  _381
REMARK  151  A    between atoms: _381  and  _382
REMARK  152  A    between atoms: _388  and  _390
REMARK  153  A    between atoms: _390  and  _391
REMARK  154  A    between atoms: _390  and  _393
REMARK  155  A    between atoms: _393  and  _394
REMARK  156  A    between atoms: _397  and  _399
REMARK  157  A    between atoms: _399  and  _400
REMARK  158  A    between atoms: _399  and  _402
REMARK  159  A    between atoms: _402  and  _403
REMARK  160  A    between atoms: _406  and  _408
REMARK  161  A    between atoms: _408  and  _409
REMARK  162  A    between atoms: _408  and  _411
REMARK  163  A    between atoms: _411  and  _412
REMARK  164  A    between atoms: _412  and  _413
REMARK  165  A    between atoms: _413  and  _414
REMARK  166  A    between atoms: _423  and  _425
REMARK  167  A    between atoms: _425  and  _426
REMARK  168  A    between atoms: _425  and  _428
REMARK  169  A    between atoms: _428  and  _429
REMARK  170  A    between atoms: _434  and  _436
REMARK  171  A    between atoms: _436  and  _437
REMARK  172  A    between atoms: _436  and  _439
REMARK  173  A    between atoms: _439  and  _440
REMARK  174  A    between atoms: _440  and  _441
REMARK  175  A    between atoms: _441  and  _442
REMARK  176  A    between atoms: _451  and  _453
REMARK  177  A    between atoms: _453  and  _454
REMARK  178  A    between atoms: _457  and  _459
REMARK  179  A    between atoms: _459  and  _460
REMARK  180  A    between atoms: _462  and  _464
REMARK  181  A    between atoms: _464  and  _465
REMARK  182  A    between atoms: _464  and  _467
REMARK  183  A    between atoms: _467  and  _468
REMARK  184  A    between atoms: _478  and  _480
REMARK  185  A    between atoms: _480  and  _481
REMARK  186  A    between atoms: _480  and  _483
REMARK  187  A    between atoms: _483  and  _484
REMARK  188  A    between atoms: _485  and  _487
REMARK  189  A    between atoms: _487  and  _488
REMARK  190  A    between atoms: _491  and  _493
REMARK  191  A    between atoms: _493  and  _494
REMARK  192  A    between atoms: _493  and  _496
REMARK  193  A    between atoms: _496  and  _497
REMARK  194  A    between atoms: _500  and  _502
REMARK  195  A    between atoms: _502  and  _503
REMARK  196  A    between atoms: _502  and  _505
REMARK  197  A    between atoms: _505  and  _506
REMARK  198  A    between atoms: _511  and  _512
REMARK  199  A    between atoms: _514  and  _516
REMARK  200  A    between atoms: _516  and  _517
REMARK  201  A    between atoms: _516  and  _519
REMARK  202  A    between atoms: _519  and  _520
REMARK  203  A    between atoms: _522  and  _524
REMARK  204  A    between atoms: _524  and  _525
REMARK  205  A    between atoms: _524  and  _527
REMARK  206  A    between atoms: _527  and  _528
REMARK  207  A    between atoms: _534  and  _536
REMARK  208  A    between atoms: _536  and  _537
REMARK  209  A    between atoms: _536  and  _539
REMARK  210  A    between atoms: _539  and  _540
REMARK  211  A    between atoms: _543  and  _545
REMARK  212  A    between atoms: _545  and  _546
REMARK  213  A    between atoms: _545  and  _548
REMARK  214  A    between atoms: _548  and  _549
REMARK  215  A    between atoms: _551  and  _553
REMARK  216  A    between atoms: _553  and  _554
REMARK  217  A    between atoms: _553  and  _556
REMARK  218  A    between atoms: _556  and  _557
REMARK  219  A    between atoms: _562  and  _564
REMARK  220  A    between atoms: _564  and  _565
REMARK  221  A    between atoms: _564  and  _567
REMARK  222  A    between atoms: _567  and  _568
REMARK  223  A    between atoms: _573  and  _575
REMARK  224  A    between atoms: _575  and  _576
REMARK  225  A    between atoms: _575  and  _578
REMARK  226  A    between atoms: _578  and  _579
REMARK  227  A    between atoms: _582  and  _584
REMARK  228  A    between atoms: _584  and  _585
REMARK  229  A    between atoms: _588  and  _590
REMARK  230  A    between atoms: _590  and  _591
REMARK  231  A    between atoms: _590  and  _593
REMARK  232  A    between atoms: _593  and  _594
REMARK  233  A    between atoms: _599  and  _600
REMARK  234  A    between atoms: _602  and  _604
REMARK  235  A    between atoms: _604  and  _605
REMARK  236  A    between atoms: _604  and  _607
REMARK  237  A    between atoms: _607  and  _608
REMARK  238  A    between atoms: _613  and  _614
REMARK  239  A    between atoms: _616  and  _618
REMARK  240  A    between atoms: _618  and  _619
REMARK  241  A    between atoms: _618  and  _621
REMARK  242  A    between atoms: _624  and  _626
REMARK  243  A    between atoms: _626  and  _627
REMARK  244  A    between atoms: _626  and  _629
REMARK  245  A    between atoms: _629  and  _630
REMARK  246  A    between atoms: _635  and  _637
REMARK  247  A    between atoms: _637  and  _638
REMARK  248  A    between atoms: _641  and  _643
REMARK  249  A    between atoms: _643  and  _644
REMARK  250  A    between atoms: _643  and  _646
REMARK  251  A    between atoms: _646  and  _647
REMARK  252  A    between atoms: _647  and  _648
REMARK  253  A    between atoms: _648  and  _649
REMARK  254  A    between atoms: _658  and  _660
REMARK  255  A    between atoms: _660  and  _661
REMARK  256  A    between atoms: _660  and  _663
REMARK  257  A    between atoms: _663  and  _664
REMARK  258  A    between atoms: _667  and  _669
REMARK  259  A    between atoms: _669  and  _670
REMARK  260  A    between atoms: _669  and  _672
REMARK  261  A    between atoms: _672  and  _673
REMARK  262  A    between atoms: _676  and  _678
REMARK  263  A    between atoms: _678  and  _679
REMARK  264  A    between atoms: _678  and  _681
REMARK  265  A    between atoms: _681  and  _682
REMARK  266  A    between atoms: _687  and  _689
REMARK  267  A    between atoms: _689  and  _690
REMARK  268  A    between atoms: _689  and  _692
REMARK  269  A    between atoms: _692  and  _693
REMARK                            x       y       z     vdW  Elec       q    Type
REMARK                         _______ _______ _______ _____ _____    ______ ____
ROOT
ATOM      1  O   HOH     1      37.465  30.264  19.978  0.00  0.00    +0.000 OA
ENDROOT
TORSDOF 0
REMARK  Name = ../refined-set-2016/1b7h/1b7h_pocket.pdb
REMARK  269 active torsions:
REMARK  status: ('A' for Active; 'I' for Inactive)
REMARK    1  A    between atoms: _1  and  _3
REMARK    2  A    between atoms: _3  and  _4
REMARK    3  A    between atoms: _6  and  _8
REMARK    4  A    between atoms: _8  and  _9
REMARK    5  A    between atoms: _8  and  _11
REMARK    6  A    between atoms: _11  and  _12
REMARK    7  A    between atoms: _14  and  _16
REMARK    8  A    between atoms: _16  and  _17
REMARK    9  A    between atoms: _16  and  _19
REMARK   10  A    between atoms: _19  and  _20
REMARK   11  A    between atoms: _20  and  _21
REMARK   12  A    between atoms: _26  and  _28
REMARK   13  A    between atoms: _28  and  _29
REMARK   14  A    between atoms: _28  and  _31
REMARK   15  A    between atoms: _31  and  _32
REMARK   16  A    between atoms: _35  and  _37
REMARK   17  A    between atoms: _37  and  _38
REMARK   18  A    between atoms: _37  and  _40
REMARK   19  A    between atoms: _40  and  _41
REMARK   20  A    between atoms: _41  and  _42
REMARK   21  A    between atoms: _45  and  _47
REMARK   22  A    between atoms: _47  and  _48
REMARK   23  A    between atoms: _50  and  _52
REMARK   24  A    between atoms: _52  and  _53
REMARK   25  A    between atoms: _52  and  _55
REMARK   26  A    between atoms: _59  and  _60
REMARK   27  A    between atoms: _65  and  _67
REMARK   28  A    between atoms: _67  and  _68
REMARK   29  A    between atoms: _67  and  _70
REMARK   30  A    between atoms: _70  and  _71
REMARK   31  A    between atoms: _71  and  _72
REMARK   32  A    between atoms: _75  and  _77
REMARK   33  A    between atoms: _77  and  _78
REMARK   34  A    between atoms: _77  and  _80
REMARK   35  A    between atoms: _80  and  _81
REMARK   36  A    between atoms: _83  and  _85
REMARK   37  A    between atoms: _85  and  _86
REMARK   38  A    between atoms: _85  and  _88
REMARK   39  A    between atoms: _88  and  _89
REMARK   40  A    between atoms: _94  and  _96
REMARK   41  A    between atoms: _96  and  _97
REMARK   42  A    between atoms: _96  and  _99
REMARK   43  A    between atoms: _99  and  _100
REMARK   44  A    between atoms: _100  and  _101
REMARK   45  A    between atoms: _101  and  _102
REMARK   46  A    between atoms: _112  and  _113
REMARK   47  A    between atoms: _118  and  _120
REMARK   48  A    between atoms: _120  and  _121
REMARK   49  A    between atoms: _120  and  _123
REMARK   50  A    between atoms: _123  and  _124
REMARK   51  A    between atoms: _129  and  _130
REMARK   52  A    between atoms: _132  and  _134
REMARK   53  A    between atoms: _134  and  _135
REMARK   54  A    between atoms: _134  and  _137
REMARK   55  A    between atoms: _137  and  _138
REMARK   56  A    between atoms: _143  and  _144
REMARK   57  A    between atoms: _146  and  _148
REMARK   58  A    between atoms: _148  and  _149
REMARK   59  A    between atoms: _148  and  _151
REMARK   60  A    between atoms: _154  and  _156
REMARK   61  A    between atoms: _156  and  _157
REMARK   62  A    between atoms: _156  and  _159
REMARK   63  A    between atoms: _159  and  _160
REMARK   64  A    between atoms: _166  and  _167
REMARK   65  A    between atoms: _172  and  _174
REMARK   66  A    between atoms: _174  and  _175
REMARK   67  A    between atoms: _174  and  _177
REMARK   68  A    between atoms: _177  and  _178
REMARK   69  A    between atoms: _180  and  _182
REMARK   70  A    between atoms: _182  and  _183
REMARK   71  A    between atoms: _182  and  _185
REMARK   72  A    between atoms: _185  and  _186
REMARK   73  A    between atoms: _191  and  _192
REMARK   74  A    between atoms: _194  and  _196
REMARK   75  A    between atoms: _196  and  _197
REMARK   76  A    between atoms: _196  and  _199
REMARK   77  A    between atoms: _199  and  _200
REMARK   78  A    between atoms: _205  and  _207
REMARK   79  A    between atoms: _207  and  _208
REMARK   80  A    between atoms: _207  and  _210
REMARK   81  A    between atoms: _210  and  _211
REMARK   82  A    between atoms: _216  and  _218
REMARK   83  A    between atoms: _218  and  _219
REMARK   84  A    between atoms: _218  and  _221
REMARK   85  A    between atoms: _221  and  _222
REMARK   86  A    between atoms: _222  and  _223
REMARK   87  A    between atoms: _225  and  _227
REMARK   88  A    between atoms: _227  and  _228
REMARK   89  A    between atoms: _227  and  _230
REMARK   90  A    between atoms: _230  and  _231
REMARK   91  A    between atoms: _236  and  _237
REMARK   92  A    between atoms: _239  and  _241
REMARK   93  A    between atoms: _241  and  _242
REMARK   94  A    between atoms: _241  and  _244
REMARK   95  A    between atoms: _244  and  _245
REMARK   96  A    between atoms: _248  and  _250
REMARK   97  A    between atoms: _250  and  _251
REMARK   98  A    between atoms: _250  and  _253
REMARK   99  A    between atoms: _253  and  _254
REMARK  100  A    between atoms: _254  and  _484
REMARK  101  A    between atoms: _255  and  _257
REMARK  102  A    between atoms: _257  and  _258
REMARK  103  A    between atoms: _257  and  _260
REMARK  104  A    between atoms: _260  and  _261
REMARK  105  A    between atoms: _264  and  _266
REMARK  106  A    between atoms: _266  and  _267
REMARK  107  A    between atoms: _266  and  _269
REMARK  108  A    between atoms: _269  and  _270
REMARK  109  A    between atoms: _275  and  _276
REMARK  110  A    between atoms: _278  and  _280
REMARK  111  A    between atoms: _280  and  _281
REMARK  112  A    between atoms: _280  and  _283
REMARK  113  A    between atoms: _283  and  _284
REMARK  114  A    between atoms: _289  and  _290
REMARK  115  A    between atoms: _292  and  _294
REMARK  116  A    between atoms: _294  and  _295
REMARK  117  A    between atoms: _294  and  _297
REMARK  118  A    between atoms: _297  and  _298
REMARK  119  A    between atoms: _298  and  _299
REMARK  120  A    between atoms: _302  and  _304
REMARK  121  A    between atoms: _304  and  _305
REMARK  122  A    between atoms: _304  and  _307
REMARK  123  A    between atoms: _307  and  _308
REMARK  124  A    between atoms: _308  and  _309
REMARK  125  A    between atoms: _309  and  _310
REMARK  126  A    between atoms: _310  and  _311
REMARK  127  A    between atoms: _315  and  _317
REMARK  128  A    between atoms: _317  and  _318
REMARK  129  A    between atoms: _317  and  _320
REMARK  130  A    between atoms: _320  and  _321
REMARK  131  A    between atoms: _326  and  _327
REMARK  132  A    between atoms: _329  and  _331
REMARK  133  A    between atoms: _331  and  _332
REMARK  134  A    between atoms: _331  and  _334
REMARK  135  A    between atoms: _334  and  _335
REMARK  136  A    between atoms: _340  and  _342
REMARK  137  A    between atoms: _342  and  _343
REMARK  138  A    between atoms: _342  and  _345
REMARK  139  A    between atoms: _345  and  _346
REMARK  140  A    between atoms: _349  and  _351
REMARK  141  A    between atoms: _351  and  _352
REMARK  142  A    between atoms: _351  and  _354
REMARK  143  A    between atoms: _354  and  _355
REMARK  144  A    between atoms: _360  and  _362
REMARK  145  A    between atoms: _362  and  _363
REMARK  146  A    between atoms: _362  and  _365
REMARK  147  A    between atoms: _365  and  _366
REMARK  148  A    between atoms: _376  and  _378
REMARK  149  A    between atoms: _378  and  _379
REMARK  150  A    between atoms: _378  and  _381
REMARK  151  A    between atoms: _381  and  _382
REMARK  152  A    between atoms: _388  and  _390
REMARK  153  A    between atoms: _390  and  _391
REMARK  154  A    between atoms: _390  and  _393
REMARK  155  A    between atoms: _393  and  _394
REMARK  156  A    between atoms: _397  and  _399
REMARK  157  A    between atoms: _399  and  _400
REMARK  158  A    between atoms: _399  and  _402
REMARK  159  A    between atoms: _402  and  _403
REMARK  160  A    between atoms: _406  and  _408
REMARK  161  A    between atoms: _408  and  _409
REMARK  162  A    between atoms: _408  and  _411
REMARK  163  A    between atoms: _411  and  _412
REMARK  164  A    between atoms: _412  and  _413
REMARK  165  A    between atoms: _413  and  _414
REMARK  166  A    between atoms: _423  and  _425
REMARK  167  A    between atoms: _425  and  _426
REMARK  168  A    between atoms: _425  and  _428
REMARK  169  A    between atoms: _428  and  _429
REMARK  170  A    between atoms: _434  and  _436
REMARK  171  A    between atoms: _436  and  _437
REMARK  172  A    between atoms: _436  and  _439
REMARK  173  A    between atoms: _439  and  _440
REMARK  174  A    between atoms: _440  and  _441
REMARK  175  A    between atoms: _441  and  _442
REMARK  176  A    between atoms: _451  and  _453
REMARK  177  A    between atoms: _453  and  _454
REMARK  178  A    between atoms: _457  and  _459
REMARK  179  A    between atoms: _459  and  _460
REMARK  180  A    between atoms: _462  and  _464
REMARK  181  A    between atoms: _464  and  _465
REMARK  182  A    between atoms: _464  and  _467
REMARK  183  A    between atoms: _467  and  _468
REMARK  184  A    between atoms: _478  and  _480
REMARK  185  A    between atoms: _480  and  _481
REMARK  186  A    between atoms: _480  and  _483
REMARK  187  A    between atoms: _483  and  _484
REMARK  188  A    between atoms: _485  and  _487
REMARK  189  A    between atoms: _487  and  _488
REMARK  190  A    between atoms: _491  and  _493
REMARK  191  A    between atoms: _493  and  _494
REMARK  192  A    between atoms: _493  and  _496
REMARK  193  A    between atoms: _496  and  _497
REMARK  194  A    between atoms: _500  and  _502
REMARK  195  A    between atoms: _502  and  _503
REMARK  196  A    between atoms: _502  and  _505
REMARK  197  A    between atoms: _505  and  _506
REMARK  198  A    between atoms: _511  and  _512
REMARK  199  A    between atoms: _514  and  _516
REMARK  200  A    between atoms: _516  and  _517
REMARK  201  A    between atoms: _516  and  _519
REMARK  202  A    between atoms: _519  and  _520
REMARK  203  A    between atoms: _522  and  _524
REMARK  204  A    between atoms: _524  and  _525
REMARK  205  A    between atoms: _524  and  _527
REMARK  206  A    between atoms: _527  and  _528
REMARK  207  A    between atoms: _534  and  _536
REMARK  208  A    between atoms: _536  and  _537
REMARK  209  A    between atoms: _536  and  _539
REMARK  210  A    between atoms: _539  and  _540
REMARK  211  A    between atoms: _543  and  _545
REMARK  212  A    between atoms: _545  and  _546
REMARK  213  A    between atoms: _545  and  _548
REMARK  214  A    between atoms: _548  and  _549
REMARK  215  A    between atoms: _551  and  _553
REMARK  216  A    between atoms: _553  and  _554
REMARK  217  A    between atoms: _553  and  _556
REMARK  218  A    between atoms: _556  and  _557
REMARK  219  A    between atoms: _562  and  _564
REMARK  220  A    between atoms: _564  and  _565
REMARK  221  A    between atoms: _564  and  _567
REMARK  222  A    between atoms: _567  and  _568
REMARK  223  A    between atoms: _573  and  _575
REMARK  224  A    between atoms: _575  and  _576
REMARK  225  A    between atoms: _575  and  _578
REMARK  226  A    between atoms: _578  and  _579
REMARK  227  A    between atoms: _582  and  _584
REMARK  228  A    between atoms: _584  and  _585
REMARK  229  A    between atoms: _588  and  _590
REMARK  230  A    between atoms: _590  and  _591
REMARK  231  A    between atoms: _590  and  _593
REMARK  232  A    between atoms: _593  and  _594
REMARK  233  A    between atoms: _599  and  _600
REMARK  234  A    between atoms: _602  and  _604
REMARK  235  A    between atoms: _604  and  _605
REMARK  236  A    between atoms: _604  and  _607
REMARK  237  A    between atoms: _607  and  _608
REMARK  238  A    between atoms: _613  and  _614
REMARK  239  A    between atoms: _616  and  _618
REMARK  240  A    between atoms: _618  and  _619
REMARK  241  A    between atoms: _618  and  _621
REMARK  242  A    between atoms: _624  and  _626
REMARK  243  A    between atoms: _626  and  _627
REMARK  244  A    between atoms: _626  and  _629
REMARK  245  A    between atoms: _629  and  _630
REMARK  246  A    between atoms: _635  and  _637
REMARK  247  A    between atoms: _637  and  _638
REMARK  248  A    between atoms: _641  and  _643
REMARK  249  A    between atoms: _643  and  _644
REMARK  250  A    between atoms: _643  and  _646
REMARK  251  A    between atoms: _646  and  _647
REMARK  252  A    between atoms: _647  and  _648
REMARK  253  A    between atoms: _648  and  _649
REMARK  254  A    between atoms: _658  and  _660
REMARK  255  A    between atoms: _660  and  _661
REMARK  256  A    between atoms: _660  and  _663
REMARK  257  A    between atoms: _663  and  _664
REMARK  258  A    between atoms: _667  and  _669
REMARK  259  A    between atoms: _669  and  _670
REMARK  260  A    between atoms: _669  and  _672
REMARK  261  A    between atoms: _672  and  _673
REMARK  262  A    between atoms: _676  and  _678
REMARK  263  A    between atoms: _678  and  _679
REMARK  264  A    between atoms: _678  and  _681
REMARK  265  A    between atoms: _681  and  _682
REMARK  266  A    between atoms: _687  and  _689
REMARK  267  A    between atoms: _689  and  _690
REMARK  268  A    between atoms: _689  and  _692
REMARK  269  A    between atoms: _692  and  _693
REMARK                            x       y       z     vdW  Elec       q    Type
REMARK                         _______ _______ _______ _____ _____    ______ ____
ROOT
ATOM      1  O   HOH     1      50.274  42.558  25.920  0.00  0.00    +0.000 OA
ENDROOT
TORSDOF 0
REMARK  Name = ../refined-set-2016/1b7h/1b7h_pocket.pdb
REMARK  269 active torsions:
REMARK  status: ('A' for Active; 'I' for Inactive)
REMARK    1  A    between atoms: _1  and  _3
REMARK    2  A    between atoms: _3  and  _4
REMARK    3  A    between atoms: _6  and  _8
REMARK    4  A    between atoms: _8  and  _9
REMARK    5  A    between atoms: _8  and  _11
REMARK    6  A    between atoms: _11  and  _12
REMARK    7  A    between atoms: _14  and  _16
REMARK    8  A    between atoms: _16  and  _17
REMARK    9  A    between atoms: _16  and  _19
REMARK   10  A    between atoms: _19  and  _20
REMARK   11  A    between atoms: _20  and  _21
REMARK   12  A    between atoms: _26  and  _28
REMARK   13  A    between atoms: _28  and  _29
REMARK   14  A    between atoms: _28  and  _31
REMARK   15  A    between atoms: _31  and  _32
REMARK   16  A    between atoms: _35  and  _37
REMARK   17  A    between atoms: _37  and  _38
REMARK   18  A    between atoms: _37  and  _40
REMARK   19  A    between atoms: _40  and  _41
REMARK   20  A    between atoms: _41  and  _42
REMARK   21  A    between atoms: _45  and  _47
REMARK   22  A    between atoms: _47  and  _48
REMARK   23  A    between atoms: _50  and  _52
REMARK   24  A    between atoms: _52  and  _53
REMARK   25  A    between atoms: _52  and  _55
REMARK   26  A    between atoms: _59  and  _60
REMARK   27  A    between atoms: _65  and  _67
REMARK   28  A    between atoms: _67  and  _68
REMARK   29  A    between atoms: _67  and  _70
REMARK   30  A    between atoms: _70  and  _71
REMARK   31  A    between atoms: _71  and  _72
REMARK   32  A    between atoms: _75  and  _77
REMARK   33  A    between atoms: _77  and  _78
REMARK   34  A    between atoms: _77  and  _80
REMARK   35  A    between atoms: _80  and  _81
REMARK   36  A    between atoms: _83  and  _85
REMARK   37  A    between atoms: _85  and  _86
REMARK   38  A    between atoms: _85  and  _88
REMARK   39  A    between atoms: _88  and  _89
REMARK   40  A    between atoms: _94  and  _96
REMARK   41  A    between atoms: _96  and  _97
REMARK   42  A    between atoms: _96  and  _99
REMARK   43  A    between atoms: _99  and  _100
REMARK   44  A    between atoms: _100  and  _101
REMARK   45  A    between atoms: _101  and  _102
REMARK   46  A    between atoms: _112  and  _113
REMARK   47  A    between atoms: _118  and  _120
REMARK   48  A    between atoms: _120  and  _121
REMARK   49  A    between atoms: _120  and  _123
REMARK   50  A    between atoms: _123  and  _124
REMARK   51  A    between atoms: _129  and  _130
REMARK   52  A    between atoms: _132  and  _134
REMARK   53  A    between atoms: _134  and  _135
REMARK   54  A    between atoms: _134  and  _137
REMARK   55  A    between atoms: _137  and  _138
REMARK   56  A    between atoms: _143  and  _144
REMARK   57  A    between atoms: _146  and  _148
REMARK   58  A    between atoms: _148  and  _149
REMARK   59  A    between atoms: _148  and  _151
REMARK   60  A    between atoms: _154  and  _156
REMARK   61  A    between atoms: _156  and  _157
REMARK   62  A    between atoms: _156  and  _159
REMARK   63  A    between atoms: _159  and  _160
REMARK   64  A    between atoms: _166  and  _167
REMARK   65  A    between atoms: _172  and  _174
REMARK   66  A    between atoms: _174  and  _175
REMARK   67  A    between atoms: _174  and  _177
REMARK   68  A    between atoms: _177  and  _178
REMARK   69  A    between atoms: _180  and  _182
REMARK   70  A    between atoms: _182  and  _183
REMARK   71  A    between atoms: _182  and  _185
REMARK   72  A    between atoms: _185  and  _186
REMARK   73  A    between atoms: _191  and  _192
REMARK   74  A    between atoms: _194  and  _196
REMARK   75  A    between atoms: _196  and  _197
REMARK   76  A    between atoms: _196  and  _199
REMARK   77  A    between atoms: _199  and  _200
REMARK   78  A    between atoms: _205  and  _207
REMARK   79  A    between atoms: _207  and  _208
REMARK   80  A    between atoms: _207  and  _210
REMARK   81  A    between atoms: _210  and  _211
REMARK   82  A    between atoms: _216  and  _218
REMARK   83  A    between atoms: _218  and  _219
REMARK   84  A    between atoms: _218  and  _221
REMARK   85  A    between atoms: _221  and  _222
REMARK   86  A    between atoms: _222  and  _223
REMARK   87  A    between atoms: _225  and  _227
REMARK   88  A    between atoms: _227  and  _228
REMARK   89  A    between atoms: _227  and  _230
REMARK   90  A    between atoms: _230  and  _231
REMARK   91  A    between atoms: _236  and  _237
REMARK   92  A    between atoms: _239  and  _241
REMARK   93  A    between atoms: _241  and  _242
REMARK   94  A    between atoms: _241  and  _244
REMARK   95  A    between atoms: _244  and  _245
REMARK   96  A    between atoms: _248  and  _250
REMARK   97  A    between atoms: _250  and  _251
REMARK   98  A    between atoms: _250  and  _253
REMARK   99  A    between atoms: _253  and  _254
REMARK  100  A    between atoms: _254  and  _484
REMARK  101  A    between atoms: _255  and  _257
REMARK  102  A    between atoms: _257  and  _258
REMARK  103  A    between atoms: _257  and  _260
REMARK  104  A    between atoms: _260  and  _261
REMARK  105  A    between atoms: _264  and  _266
REMARK  106  A    between atoms: _266  and  _267
REMARK  107  A    between atoms: _266  and  _269
REMARK  108  A    between atoms: _269  and  _270
REMARK  109  A    between atoms: _275  and  _276
REMARK  110  A    between atoms: _278  and  _280
REMARK  111  A    between atoms: _280  and  _281
REMARK  112  A    between atoms: _280  and  _283
REMARK  113  A    between atoms: _283  and  _284
REMARK  114  A    between atoms: _289  and  _290
REMARK  115  A    between atoms: _292  and  _294
REMARK  116  A    between atoms: _294  and  _295
REMARK  117  A    between atoms: _294  and  _297
REMARK  118  A    between atoms: _297  and  _298
REMARK  119  A    between atoms: _298  and  _299
REMARK  120  A    between atoms: _302  and  _304
REMARK  121  A    between atoms: _304  and  _305
REMARK  122  A    between atoms: _304  and  _307
REMARK  123  A    between atoms: _307  and  _308
REMARK  124  A    between atoms: _308  and  _309
REMARK  125  A    between atoms: _309  and  _310
REMARK  126  A    between atoms: _310  and  _311
REMARK  127  A    between atoms: _315  and  _317
REMARK  128  A    between atoms: _317  and  _318
REMARK  129  A    between atoms: _317  and  _320
REMARK  130  A    between atoms: _320  and  _321
REMARK  131  A    between atoms: _326  and  _327
REMARK  132  A    between atoms: _329  and  _331
REMARK  133  A    between atoms: _331  and  _332
REMARK  134  A    between atoms: _331  and  _334
REMARK  135  A    between atoms: _334  and  _335
REMARK  136  A    between atoms: _340  and  _342
REMARK  137  A    between atoms: _342  and  _343
REMARK  138  A    between atoms: _342  and  _345
REMARK  139  A    between atoms: _345  and  _346
REMARK  140  A    between atoms: _349  and  _351
REMARK  141  A    between atoms: _351  and  _352
REMARK  142  A    between atoms: _351  and  _354
REMARK  143  A    between atoms: _354  and  _355
REMARK  144  A    between atoms: _360  and  _362
REMARK  145  A    between atoms: _362  and  _363
REMARK  146  A    between atoms: _362  and  _365
REMARK  147  A    between atoms: _365  and  _366
REMARK  148  A    between atoms: _376  and  _378
REMARK  149  A    between atoms: _378  and  _379
REMARK  150  A    between atoms: _378  and  _381
REMARK  151  A    between atoms: _381  and  _382
REMARK  152  A    between atoms: _388  and  _390
REMARK  153  A    between atoms: _390  and  _391
REMARK  154  A    between atoms: _390  and  _393
REMARK  155  A    between atoms: _393  and  _394
REMARK  156  A    between atoms: _397  and  _399
REMARK  157  A    between atoms: _399  and  _400
REMARK  158  A    between atoms: _399  and  _402
REMARK  159  A    between atoms: _402  and  _403
REMARK  160  A    between atoms: _406  and  _408
REMARK  161  A    between atoms: _408  and  _409
REMARK  162  A    between atoms: _408  and  _411
REMARK  163  A    between atoms: _411  and  _412
REMARK  164  A    between atoms: _412  and  _413
REMARK  165  A    between atoms: _413  and  _414
REMARK  166  A    between atoms: _423  and  _425
REMARK  167  A    between atoms: _425  and  _426
REMARK  168  A    between atoms: _425  and  _428
REMARK  169  A    between atoms: _428  and  _429
REMARK  170  A    between atoms: _434  and  _436
REMARK  171  A    between atoms: _436  and  _437
REMARK  172  A    between atoms: _436  and  _439
REMARK  173  A    between atoms: _439  and  _440
REMARK  174  A    between atoms: _440  and  _441
REMARK  175  A    between atoms: _441  and  _442
REMARK  176  A    between atoms: _451  and  _453
REMARK  177  A    between atoms: _453  and  _454
REMARK  178  A    between atoms: _457  and  _459
REMARK  179  A    between atoms: _459  and  _460
REMARK  180  A    between atoms: _462  and  _464
REMARK  181  A    between atoms: _464  and  _465
REMARK  182  A    between atoms: _464  and  _467
REMARK  183  A    between atoms: _467  and  _468
REMARK  184  A    between atoms: _478  and  _480
REMARK  185  A    between atoms: _480  and  _481
REMARK  186  A    between atoms: _480  and  _483
REMARK  187  A    between atoms: _483  and  _484
REMARK  188  A    between atoms: _485  and  _487
REMARK  189  A    between atoms: _487  and  _488
REMARK  190  A    between atoms: _491  and  _493
REMARK  191  A    between atoms: _493  and  _494
REMARK  192  A    between atoms: _493  and  _496
REMARK  193  A    between atoms: _496  and  _497
REMARK  194  A    between atoms: _500  and  _502
REMARK  195  A    between atoms: _502  and  _503
REMARK  196  A    between atoms: _502  and  _505
REMARK  197  A    between atoms: _505  and  _506
REMARK  198  A    between atoms: _511  and  _512
REMARK  199  A    between atoms: _514  and  _516
REMARK  200  A    between atoms: _516  and  _517
REMARK  201  A    between atoms: _516  and  _519
REMARK  202  A    between atoms: _519  and  _520
REMARK  203  A    between atoms: _522  and  _524
REMARK  204  A    between atoms: _524  and  _525
REMARK  205  A    between atoms: _524  and  _527
REMARK  206  A    between atoms: _527  and  _528
REMARK  207  A    between atoms: _534  and  _536
REMARK  208  A    between atoms: _536  and  _537
REMARK  209  A    between atoms: _536  and  _539
REMARK  210  A    between atoms: _539  and  _540
REMARK  211  A    between atoms: _543  and  _545
REMARK  212  A    between atoms: _545  and  _546
REMARK  213  A    between atoms: _545  and  _548
REMARK  214  A    between atoms: _548  and  _549
REMARK  215  A    between atoms: _551  and  _553
REMARK  216  A    between atoms: _553  and  _554
REMARK  217  A    between atoms: _553  and  _556
REMARK  218  A    between atoms: _556  and  _557
REMARK  219  A    between atoms: _562  and  _564
REMARK  220  A    between atoms: _564  and  _565
REMARK  221  A    between atoms: _564  and  _567
REMARK  222  A    between atoms: _567  and  _568
REMARK  223  A    between atoms: _573  and  _575
REMARK  224  A    between atoms: _575  and  _576
REMARK  225  A    between atoms: _575  and  _578
REMARK  226  A    between atoms: _578  and  _579
REMARK  227  A    between atoms: _582  and  _584
REMARK  228  A    between atoms: _584  and  _585
REMARK  229  A    between atoms: _588  and  _590
REMARK  230  A    between atoms: _590  and  _591
REMARK  231  A    between atoms: _590  and  _593
REMARK  232  A    between atoms: _593  and  _594
REMARK  233  A    between atoms: _599  and  _600
REMARK  234  A    between atoms: _602  and  _604
REMARK  235  A    between atoms: _604  and  _605
REMARK  236  A    between atoms: _604  and  _607
REMARK  237  A    between atoms: _607  and  _608
REMARK  238  A    between atoms: _613  and  _614
REMARK  239  A    between atoms: _616  and  _618
REMARK  240  A    between atoms: _618  and  _619
REMARK  241  A    between atoms: _618  and  _621
REMARK  242  A    between atoms: _624  and  _626
REMARK  243  A    between atoms: _626  and  _627
REMARK  244  A    between atoms: _626  and  _629
REMARK  245  A    between atoms: _629  and  _630
REMARK  246  A    between atoms: _635  and  _637
REMARK  247  A    between atoms: _637  and  _638
REMARK  248  A    between atoms: _641  and  _643
REMARK  249  A    between atoms: _643  and  _644
REMARK  250  A    between atoms: _643  and  _646
REMARK  251  A    between atoms: _646  and  _647
REMARK  252  A    between atoms: _647  and  _648
REMARK  253  A    between atoms: _648  and  _649
REMARK  254  A    between atoms: _658  and  _660
REMARK  255  A    between atoms: _660  and  _661
REMARK  256  A    between atoms: _660  and  _663
REMARK  257  A    between atoms: _663  and  _664
REMARK  258  A    between atoms: _667  and  _669
REMARK  259  A    between atoms: _669  and  _670
REMARK  260  A    between atoms: _669  and  _672
REMARK  261  A    between atoms: _672  and  _673
REMARK  262  A    between atoms: _676  and  _678
REMARK  263  A    between atoms: _678  and  _679
REMARK  264  A    between atoms: _678  and  _681
REMARK  265  A    between atoms: _681  and  _682
REMARK  266  A    between atoms: _687  and  _689
REMARK  267  A    between atoms: _689  and  _690
REMARK  268  A    between atoms: _689  and  _692
REMARK  269  A    between atoms: _692  and  _693
REMARK                            x       y       z     vdW  Elec       q    Type
REMARK                         _______ _______ _______ _____ _____    ______ ____
ROOT
ATOM      1  O   HOH     1      34.116  38.952  26.444  0.00  0.00    +0.000 OA
ENDROOT
TORSDOF 0
REMARK  Name = ../refined-set-2016/1b7h/1b7h_pocket.pdb
REMARK  269 active torsions:
REMARK  status: ('A' for Active; 'I' for Inactive)
REMARK    1  A    between atoms: _1  and  _3
REMARK    2  A    between atoms: _3  and  _4
REMARK    3  A    between atoms: _6  and  _8
REMARK    4  A    between atoms: _8  and  _9
REMARK    5  A    between atoms: _8  and  _11
REMARK    6  A    between atoms: _11  and  _12
REMARK    7  A    between atoms: _14  and  _16
REMARK    8  A    between atoms: _16  and  _17
REMARK    9  A    between atoms: _16  and  _19
REMARK   10  A    between atoms: _19  and  _20
REMARK   11  A    between atoms: _20  and  _21
REMARK   12  A    between atoms: _26  and  _28
REMARK   13  A    between atoms: _28  and  _29
REMARK   14  A    between atoms: _28  and  _31
REMARK   15  A    between atoms: _31  and  _32
REMARK   16  A    between atoms: _35  and  _37
REMARK   17  A    between atoms: _37  and  _38
REMARK   18  A    between atoms: _37  and  _40
REMARK   19  A    between atoms: _40  and  _41
REMARK   20  A    between atoms: _41  and  _42
REMARK   21  A    between atoms: _45  and  _47
REMARK   22  A    between atoms: _47  and  _48
REMARK   23  A    between atoms: _50  and  _52
REMARK   24  A    between atoms: _52  and  _53
REMARK   25  A    between atoms: _52  and  _55
REMARK   26  A    between atoms: _59  and  _60
REMARK   27  A    between atoms: _65  and  _67
REMARK   28  A    between atoms: _67  and  _68
REMARK   29  A    between atoms: _67  and  _70
REMARK   30  A    between atoms: _70  and  _71
REMARK   31  A    between atoms: _71  and  _72
REMARK   32  A    between atoms: _75  and  _77
REMARK   33  A    between atoms: _77  and  _78
REMARK   34  A    between atoms: _77  and  _80
REMARK   35  A    between atoms: _80  and  _81
REMARK   36  A    between atoms: _83  and  _85
REMARK   37  A    between atoms: _85  and  _86
REMARK   38  A    between atoms: _85  and  _88
REMARK   39  A    between atoms: _88  and  _89
REMARK   40  A    between atoms: _94  and  _96
REMARK   41  A    between atoms: _96  and  _97
REMARK   42  A    between atoms: _96  and  _99
REMARK   43  A    between atoms: _99  and  _100
REMARK   44  A    between atoms: _100  and  _101
REMARK   45  A    between atoms: _101  and  _102
REMARK   46  A    between atoms: _112  and  _113
REMARK   47  A    between atoms: _118  and  _120
REMARK   48  A    between atoms: _120  and  _121
REMARK   49  A    between atoms: _120  and  _123
REMARK   50  A    between atoms: _123  and  _124
REMARK   51  A    between atoms: _129  and  _130
REMARK   52  A    between atoms: _132  and  _134
REMARK   53  A    between atoms: _134  and  _135
REMARK   54  A    between atoms: _134  and  _137
REMARK   55  A    between atoms: _137  and  _138
REMARK   56  A    between atoms: _143  and  _144
REMARK   57  A    between atoms: _146  and  _148
REMARK   58  A    between atoms: _148  and  _149
REMARK   59  A    between atoms: _148  and  _151
REMARK   60  A    between atoms: _154  and  _156
REMARK   61  A    between atoms: _156  and  _157
REMARK   62  A    between atoms: _156  and  _159
REMARK   63  A    between atoms: _159  and  _160
REMARK   64  A    between atoms: _166  and  _167
REMARK   65  A    between atoms: _172  and  _174
REMARK   66  A    between atoms: _174  and  _175
REMARK   67  A    between atoms: _174  and  _177
REMARK   68  A    between atoms: _177  and  _178
REMARK   69  A    between atoms: _180  and  _182
REMARK   70  A    between atoms: _182  and  _183
REMARK   71  A    between atoms: _182  and  _185
REMARK   72  A    between atoms: _185  and  _186
REMARK   73  A    between atoms: _191  and  _192
REMARK   74  A    between atoms: _194  and  _196
REMARK   75  A    between atoms: _196  and  _197
REMARK   76  A    between atoms: _196  and  _199
REMARK   77  A    between atoms: _199  and  _200
REMARK   78  A    between atoms: _205  and  _207
REMARK   79  A    between atoms: _207  and  _208
REMARK   80  A    between atoms: _207  and  _210
REMARK   81  A    between atoms: _210  and  _211
REMARK   82  A    between atoms: _216  and  _218
REMARK   83  A    between atoms: _218  and  _219
REMARK   84  A    between atoms: _218  and  _221
REMARK   85  A    between atoms: _221  and  _222
REMARK   86  A    between atoms: _222  and  _223
REMARK   87  A    between atoms: _225  and  _227
REMARK   88  A    between atoms: _227  and  _228
REMARK   89  A    between atoms: _227  and  _230
REMARK   90  A    between atoms: _230  and  _231
REMARK   91  A    between atoms: _236  and  _237
REMARK   92  A    between atoms: _239  and  _241
REMARK   93  A    between atoms: _241  and  _242
REMARK   94  A    between atoms: _241  and  _244
REMARK   95  A    between atoms: _244  and  _245
REMARK   96  A    between atoms: _248  and  _250
REMARK   97  A    between atoms: _250  and  _251
REMARK   98  A    between atoms: _250  and  _253
REMARK   99  A    between atoms: _253  and  _254
REMARK  100  A    between atoms: _254  and  _484
REMARK  101  A    between atoms: _255  and  _257
REMARK  102  A    between atoms: _257  and  _258
REMARK  103  A    between atoms: _257  and  _260
REMARK  104  A    between atoms: _260  and  _261
REMARK  105  A    between atoms: _264  and  _266
REMARK  106  A    between atoms: _266  and  _267
REMARK  107  A    between atoms: _266  and  _269
REMARK  108  A    between atoms: _269  and  _270
REMARK  109  A    between atoms: _275  and  _276
REMARK  110  A    between atoms: _278  and  _280
REMARK  111  A    between atoms: _280  and  _281
REMARK  112  A    between atoms: _280  and  _283
REMARK  113  A    between atoms: _283  and  _284
REMARK  114  A    between atoms: _289  and  _290
REMARK  115  A    between atoms: _292  and  _294
REMARK  116  A    between atoms: _294  and  _295
REMARK  117  A    between atoms: _294  and  _297
REMARK  118  A    between atoms: _297  and  _298
REMARK  119  A    between atoms: _298  and  _299
REMARK  120  A    between atoms: _302  and  _304
REMARK  121  A    between atoms: _304  and  _305
REMARK  122  A    between atoms: _304  and  _307
REMARK  123  A    between atoms: _307  and  _308
REMARK  124  A    between atoms: _308  and  _309
REMARK  125  A    between atoms: _309  and  _310
REMARK  126  A    between atoms: _310  and  _311
REMARK  127  A    between atoms: _315  and  _317
REMARK  128  A    between atoms: _317  and  _318
REMARK  129  A    between atoms: _317  and  _320
REMARK  130  A    between atoms: _320  and  _321
REMARK  131  A    between atoms: _326  and  _327
REMARK  132  A    between atoms: _329  and  _331
REMARK  133  A    between atoms: _331  and  _332
REMARK  134  A    between atoms: _331  and  _334
REMARK  135  A    between atoms: _334  and  _335
REMARK  136  A    between atoms: _340  and  _342
REMARK  137  A    between atoms: _342  and  _343
REMARK  138  A    between atoms: _342  and  _345
REMARK  139  A    between atoms: _345  and  _346
REMARK  140  A    between atoms: _349  and  _351
REMARK  141  A    between atoms: _351  and  _352
REMARK  142  A    between atoms: _351  and  _354
REMARK  143  A    between atoms: _354  and  _355
REMARK  144  A    between atoms: _360  and  _362
REMARK  145  A    between atoms: _362  and  _363
REMARK  146  A    between atoms: _362  and  _365
REMARK  147  A    between atoms: _365  and  _366
REMARK  148  A    between atoms: _376  and  _378
REMARK  149  A    between atoms: _378  and  _379
REMARK  150  A    between atoms: _378  and  _381
REMARK  151  A    between atoms: _381  and  _382
REMARK  152  A    between atoms: _388  and  _390
REMARK  153  A    between atoms: _390  and  _391
REMARK  154  A    between atoms: _390  and  _393
REMARK  155  A    between atoms: _393  and  _394
REMARK  156  A    between atoms: _397  and  _399
REMARK  157  A    between atoms: _399  and  _400
REMARK  158  A    between atoms: _399  and  _402
REMARK  159  A    between atoms: _402  and  _403
REMARK  160  A    between atoms: _406  and  _408
REMARK  161  A    between atoms: _408  and  _409
REMARK  162  A    between atoms: _408  and  _411
REMARK  163  A    between atoms: _411  and  _412
REMARK  164  A    between atoms: _412  and  _413
REMARK  165  A    between atoms: _413  and  _414
REMARK  166  A    between atoms: _423  and  _425
REMARK  167  A    between atoms: _425  and  _426
REMARK  168  A    between atoms: _425  and  _428
REMARK  169  A    between atoms: _428  and  _429
REMARK  170  A    between atoms: _434  and  _436
REMARK  171  A    between atoms: _436  and  _437
REMARK  172  A    between atoms: _436  and  _439
REMARK  173  A    between atoms: _439  and  _440
REMARK  174  A    between atoms: _440  and  _441
REMARK  175  A    between atoms: _441  and  _442
REMARK  176  A    between atoms: _451  and  _453
REMARK  177  A    between atoms: _453  and  _454
REMARK  178  A    between atoms: _457  and  _459
REMARK  179  A    between atoms: _459  and  _460
REMARK  180  A    between atoms: _462  and  _464
REMARK  181  A    between atoms: _464  and  _465
REMARK  182  A    between atoms: _464  and  _467
REMARK  183  A    between atoms: _467  and  _468
REMARK  184  A    between atoms: _478  and  _480
REMARK  185  A    between atoms: _480  and  _481
REMARK  186  A    between atoms: _480  and  _483
REMARK  187  A    between atoms: _483  and  _484
REMARK  188  A    between atoms: _485  and  _487
REMARK  189  A    between atoms: _487  and  _488
REMARK  190  A    between atoms: _491  and  _493
REMARK  191  A    between atoms: _493  and  _494
REMARK  192  A    between atoms: _493  and  _496
REMARK  193  A    between atoms: _496  and  _497
REMARK  194  A    between atoms: _500  and  _502
REMARK  195  A    between atoms: _502  and  _503
REMARK  196  A    between atoms: _502  and  _505
REMARK  197  A    between atoms: _505  and  _506
REMARK  198  A    between atoms: _511  and  _512
REMARK  199  A    between atoms: _514  and  _516
REMARK  200  A    between atoms: _516  and  _517
REMARK  201  A    between atoms: _516  and  _519
REMARK  202  A    between atoms: _519  and  _520
REMARK  203  A    between atoms: _522  and  _524
REMARK  204  A    between atoms: _524  and  _525
REMARK  205  A    between atoms: _524  and  _527
REMARK  206  A    between atoms: _527  and  _528
REMARK  207  A    between atoms: _534  and  _536
REMARK  208  A    between atoms: _536  and  _537
REMARK  209  A    between atoms: _536  and  _539
REMARK  210  A    between atoms: _539  and  _540
REMARK  211  A    between atoms: _543  and  _545
REMARK  212  A    between atoms: _545  and  _546
REMARK  213  A    between atoms: _545  and  _548
REMARK  214  A    between atoms: _548  and  _549
REMARK  215  A    between atoms: _551  and  _553
REMARK  216  A    between atoms: _553  and  _554
REMARK  217  A    between atoms: _553  and  _556
REMARK  218  A    between atoms: _556  and  _557
REMARK  219  A    between atoms: _562  and  _564
REMARK  220  A    between atoms: _564  and  _565
REMARK  221  A    between atoms: _564  and  _567
REMARK  222  A    between atoms: _567  and  _568
REMARK  223  A    between atoms: _573  and  _575
REMARK  224  A    between atoms: _575  and  _576
REMARK  225  A    between atoms: _575  and  _578
REMARK  226  A    between atoms: _578  and  _579
REMARK  227  A    between atoms: _582  and  _584
REMARK  228  A    between atoms: _584  and  _585
REMARK  229  A    between atoms: _588  and  _590
REMARK  230  A    between atoms: _590  and  _591
REMARK  231  A    between atoms: _590  and  _593
REMARK  232  A    between atoms: _593  and  _594
REMARK  233  A    between atoms: _599  and  _600
REMARK  234  A    between atoms: _602  and  _604
REMARK  235  A    between atoms: _604  and  _605
REMARK  236  A    between atoms: _604  and  _607
REMARK  237  A    between atoms: _607  and  _608
REMARK  238  A    between atoms: _613  and  _614
REMARK  239  A    between atoms: _616  and  _618
REMARK  240  A    between atoms: _618  and  _619
REMARK  241  A    between atoms: _618  and  _621
REMARK  242  A    between atoms: _624  and  _626
REMARK  243  A    between atoms: _626  and  _627
REMARK  244  A    between atoms: _626  and  _629
REMARK  245  A    between atoms: _629  and  _630
REMARK  246  A    between atoms: _635  and  _637
REMARK  247  A    between atoms: _637  and  _638
REMARK  248  A    between atoms: _641  and  _643
REMARK  249  A    between atoms: _643  and  _644
REMARK  250  A    between atoms: _643  and  _646
REMARK  251  A    between atoms: _646  and  _647
REMARK  252  A    between atoms: _647  and  _648
REMARK  253  A    between atoms: _648  and  _649
REMARK  254  A    between atoms: _658  and  _660
REMARK  255  A    between atoms: _660  and  _661
REMARK  256  A    between atoms: _660  and  _663
REMARK  257  A    between atoms: _663  and  _664
REMARK  258  A    between atoms: _667  and  _669
REMARK  259  A    between atoms: _669  and  _670
REMARK  260  A    between atoms: _669  and  _672
REMARK  261  A    between atoms: _672  and  _673
REMARK  262  A    between atoms: _676  and  _678
REMARK  263  A    between atoms: _678  and  _679
REMARK  264  A    between atoms: _678  and  _681
REMARK  265  A    between atoms: _681  and  _682
REMARK  266  A    between atoms: _687  and  _689
REMARK  267  A    between atoms: _689  and  _690
REMARK  268  A    between atoms: _689  and  _692
REMARK  269  A    between atoms: _692  and  _693
REMARK                            x       y       z     vdW  Elec       q    Type
REMARK                         _______ _______ _______ _____ _____    ______ ____
ROOT
ATOM      1  O   HOH     1      37.603  46.361  25.639  0.00  0.00    +0.000 OA
ENDROOT
TORSDOF 0
REMARK  Name = ../refined-set-2016/1b7h/1b7h_pocket.pdb
REMARK  269 active torsions:
REMARK  status: ('A' for Active; 'I' for Inactive)
REMARK    1  A    between atoms: _1  and  _3
REMARK    2  A    between atoms: _3  and  _4
REMARK    3  A    between atoms: _6  and  _8
REMARK    4  A    between atoms: _8  and  _9
REMARK    5  A    between atoms: _8  and  _11
REMARK    6  A    between atoms: _11  and  _12
REMARK    7  A    between atoms: _14  and  _16
REMARK    8  A    between atoms: _16  and  _17
REMARK    9  A    between atoms: _16  and  _19
REMARK   10  A    between atoms: _19  and  _20
REMARK   11  A    between atoms: _20  and  _21
REMARK   12  A    between atoms: _26  and  _28
REMARK   13  A    between atoms: _28  and  _29
REMARK   14  A    between atoms: _28  and  _31
REMARK   15  A    between atoms: _31  and  _32
REMARK   16  A    between atoms: _35  and  _37
REMARK   17  A    between atoms: _37  and  _38
REMARK   18  A    between atoms: _37  and  _40
REMARK   19  A    between atoms: _40  and  _41
REMARK   20  A    between atoms: _41  and  _42
REMARK   21  A    between atoms: _45  and  _47
REMARK   22  A    between atoms: _47  and  _48
REMARK   23  A    between atoms: _50  and  _52
REMARK   24  A    between atoms: _52  and  _53
REMARK   25  A    between atoms: _52  and  _55
REMARK   26  A    between atoms: _59  and  _60
REMARK   27  A    between atoms: _65  and  _67
REMARK   28  A    between atoms: _67  and  _68
REMARK   29  A    between atoms: _67  and  _70
REMARK   30  A    between atoms: _70  and  _71
REMARK   31  A    between atoms: _71  and  _72
REMARK   32  A    between atoms: _75  and  _77
REMARK   33  A    between atoms: _77  and  _78
REMARK   34  A    between atoms: _77  and  _80
REMARK   35  A    between atoms: _80  and  _81
REMARK   36  A    between atoms: _83  and  _85
REMARK   37  A    between atoms: _85  and  _86
REMARK   38  A    between atoms: _85  and  _88
REMARK   39  A    between atoms: _88  and  _89
REMARK   40  A    between atoms: _94  and  _96
REMARK   41  A    between atoms: _96  and  _97
REMARK   42  A    between atoms: _96  and  _99
REMARK   43  A    between atoms: _99  and  _100
REMARK   44  A    between atoms: _100  and  _101
REMARK   45  A    between atoms: _101  and  _102
REMARK   46  A    between atoms: _112  and  _113
REMARK   47  A    between atoms: _118  and  _120
REMARK   48  A    between atoms: _120  and  _121
REMARK   49  A    between atoms: _120  and  _123
REMARK   50  A    between atoms: _123  and  _124
REMARK   51  A    between atoms: _129  and  _130
REMARK   52  A    between atoms: _132  and  _134
REMARK   53  A    between atoms: _134  and  _135
REMARK   54  A    between atoms: _134  and  _137
REMARK   55  A    between atoms: _137  and  _138
REMARK   56  A    between atoms: _143  and  _144
REMARK   57  A    between atoms: _146  and  _148
REMARK   58  A    between atoms: _148  and  _149
REMARK   59  A    between atoms: _148  and  _151
REMARK   60  A    between atoms: _154  and  _156
REMARK   61  A    between atoms: _156  and  _157
REMARK   62  A    between atoms: _156  and  _159
REMARK   63  A    between atoms: _159  and  _160
REMARK   64  A    between atoms: _166  and  _167
REMARK   65  A    between atoms: _172  and  _174
REMARK   66  A    between atoms: _174  and  _175
REMARK   67  A    between atoms: _174  and  _177
REMARK   68  A    between atoms: _177  and  _178
REMARK   69  A    between atoms: _180  and  _182
REMARK   70  A    between atoms: _182  and  _183
REMARK   71  A    between atoms: _182  and  _185
REMARK   72  A    between atoms: _185  and  _186
REMARK   73  A    between atoms: _191  and  _192
REMARK   74  A    between atoms: _194  and  _196
REMARK   75  A    between atoms: _196  and  _197
REMARK   76  A    between atoms: _196  and  _199
REMARK   77  A    between atoms: _199  and  _200
REMARK   78  A    between atoms: _205  and  _207
REMARK   79  A    between atoms: _207  and  _208
REMARK   80  A    between atoms: _207  and  _210
REMARK   81  A    between atoms: _210  and  _211
REMARK   82  A    between atoms: _216  and  _218
REMARK   83  A    between atoms: _218  and  _219
REMARK   84  A    between atoms: _218  and  _221
REMARK   85  A    between atoms: _221  and  _222
REMARK   86  A    between atoms: _222  and  _223
REMARK   87  A    between atoms: _225  and  _227
REMARK   88  A    between atoms: _227  and  _228
REMARK   89  A    between atoms: _227  and  _230
REMARK   90  A    between atoms: _230  and  _231
REMARK   91  A    between atoms: _236  and  _237
REMARK   92  A    between atoms: _239  and  _241
REMARK   93  A    between atoms: _241  and  _242
REMARK   94  A    between atoms: _241  and  _244
REMARK   95  A    between atoms: _244  and  _245
REMARK   96  A    between atoms: _248  and  _250
REMARK   97  A    between atoms: _250  and  _251
REMARK   98  A    between atoms: _250  and  _253
REMARK   99  A    between atoms: _253  and  _254
REMARK  100  A    between atoms: _254  and  _484
REMARK  101  A    between atoms: _255  and  _257
REMARK  102  A    between atoms: _257  and  _258
REMARK  103  A    between atoms: _257  and  _260
REMARK  104  A    between atoms: _260  and  _261
REMARK  105  A    between atoms: _264  and  _266
REMARK  106  A    between atoms: _266  and  _267
REMARK  107  A    between atoms: _266  and  _269
REMARK  108  A    between atoms: _269  and  _270
REMARK  109  A    between atoms: _275  and  _276
REMARK  110  A    between atoms: _278  and  _280
REMARK  111  A    between atoms: _280  and  _281
REMARK  112  A    between atoms: _280  and  _283
REMARK  113  A    between atoms: _283  and  _284
REMARK  114  A    between atoms: _289  and  _290
REMARK  115  A    between atoms: _292  and  _294
REMARK  116  A    between atoms: _294  and  _295
REMARK  117  A    between atoms: _294  and  _297
REMARK  118  A    between atoms: _297  and  _298
REMARK  119  A    between atoms: _298  and  _299
REMARK  120  A    between atoms: _302  and  _304
REMARK  121  A    between atoms: _304  and  _305
REMARK  122  A    between atoms: _304  and  _307
REMARK  123  A    between atoms: _307  and  _308
REMARK  124  A    between atoms: _308  and  _309
REMARK  125  A    between atoms: _309  and  _310
REMARK  126  A    between atoms: _310  and  _311
REMARK  127  A    between atoms: _315  and  _317
REMARK  128  A    between atoms: _317  and  _318
REMARK  129  A    between atoms: _317  and  _320
REMARK  130  A    between atoms: _320  and  _321
REMARK  131  A    between atoms: _326  and  _327
REMARK  132  A    between atoms: _329  and  _331
REMARK  133  A    between atoms: _331  and  _332
REMARK  134  A    between atoms: _331  and  _334
REMARK  135  A    between atoms: _334  and  _335
REMARK  136  A    between atoms: _340  and  _342
REMARK  137  A    between atoms: _342  and  _343
REMARK  138  A    between atoms: _342  and  _345
REMARK  139  A    between atoms: _345  and  _346
REMARK  140  A    between atoms: _349  and  _351
REMARK  141  A    between atoms: _351  and  _352
REMARK  142  A    between atoms: _351  and  _354
REMARK  143  A    between atoms: _354  and  _355
REMARK  144  A    between atoms: _360  and  _362
REMARK  145  A    between atoms: _362  and  _363
REMARK  146  A    between atoms: _362  and  _365
REMARK  147  A    between atoms: _365  and  _366
REMARK  148  A    between atoms: _376  and  _378
REMARK  149  A    between atoms: _378  and  _379
REMARK  150  A    between atoms: _378  and  _381
REMARK  151  A    between atoms: _381  and  _382
REMARK  152  A    between atoms: _388  and  _390
REMARK  153  A    between atoms: _390  and  _391
REMARK  154  A    between atoms: _390  and  _393
REMARK  155  A    between atoms: _393  and  _394
REMARK  156  A    between atoms: _397  and  _399
REMARK  157  A    between atoms: _399  and  _400
REMARK  158  A    between atoms: _399  and  _402
REMARK  159  A    between atoms: _402  and  _403
REMARK  160  A    between atoms: _406  and  _408
REMARK  161  A    between atoms: _408  and  _409
REMARK  162  A    between atoms: _408  and  _411
REMARK  163  A    between atoms: _411  and  _412
REMARK  164  A    between atoms: _412  and  _413
REMARK  165  A    between atoms: _413  and  _414
REMARK  166  A    between atoms: _423  and  _425
REMARK  167  A    between atoms: _425  and  _426
REMARK  168  A    between atoms: _425  and  _428
REMARK  169  A    between atoms: _428  and  _429
REMARK  170  A    between atoms: _434  and  _436
REMARK  171  A    between atoms: _436  and  _437
REMARK  172  A    between atoms: _436  and  _439
REMARK  173  A    between atoms: _439  and  _440
REMARK  174  A    between atoms: _440  and  _441
REMARK  175  A    between atoms: _441  and  _442
REMARK  176  A    between atoms: _451  and  _453
REMARK  177  A    between atoms: _453  and  _454
REMARK  178  A    between atoms: _457  and  _459
REMARK  179  A    between atoms: _459  and  _460
REMARK  180  A    between atoms: _462  and  _464
REMARK  181  A    between atoms: _464  and  _465
REMARK  182  A    between atoms: _464  and  _467
REMARK  183  A    between atoms: _467  and  _468
REMARK  184  A    between atoms: _478  and  _480
REMARK  185  A    between atoms: _480  and  _481
REMARK  186  A    between atoms: _480  and  _483
REMARK  187  A    between atoms: _483  and  _484
REMARK  188  A    between atoms: _485  and  _487
REMARK  189  A    between atoms: _487  and  _488
REMARK  190  A    between atoms: _491  and  _493
REMARK  191  A    between atoms: _493  and  _494
REMARK  192  A    between atoms: _493  and  _496
REMARK  193  A    between atoms: _496  and  _497
REMARK  194  A    between atoms: _500  and  _502
REMARK  195  A    between atoms: _502  and  _503
REMARK  196  A    between atoms: _502  and  _505
REMARK  197  A    between atoms: _505  and  _506
REMARK  198  A    between atoms: _511  and  _512
REMARK  199  A    between atoms: _514  and  _516
REMARK  200  A    between atoms: _516  and  _517
REMARK  201  A    between atoms: _516  and  _519
REMARK  202  A    between atoms: _519  and  _520
REMARK  203  A    between atoms: _522  and  _524
REMARK  204  A    between atoms: _524  and  _525
REMARK  205  A    between atoms: _524  and  _527
REMARK  206  A    between atoms: _527  and  _528
REMARK  207  A    between atoms: _534  and  _536
REMARK  208  A    between atoms: _536  and  _537
REMARK  209  A    between atoms: _536  and  _539
REMARK  210  A    between atoms: _539  and  _540
REMARK  211  A    between atoms: _543  and  _545
REMARK  212  A    between atoms: _545  and  _546
REMARK  213  A    between atoms: _545  and  _548
REMARK  214  A    between atoms: _548  and  _549
REMARK  215  A    between atoms: _551  and  _553
REMARK  216  A    between atoms: _553  and  _554
REMARK  217  A    between atoms: _553  and  _556
REMARK  218  A    between atoms: _556  and  _557
REMARK  219  A    between atoms: _562  and  _564
REMARK  220  A    between atoms: _564  and  _565
REMARK  221  A    between atoms: _564  and  _567
REMARK  222  A    between atoms: _567  and  _568
REMARK  223  A    between atoms: _573  and  _575
REMARK  224  A    between atoms: _575  and  _576
REMARK  225  A    between atoms: _575  and  _578
REMARK  226  A    between atoms: _578  and  _579
REMARK  227  A    between atoms: _582  and  _584
REMARK  228  A    between atoms: _584  and  _585
REMARK  229  A    between atoms: _588  and  _590
REMARK  230  A    between atoms: _590  and  _591
REMARK  231  A    between atoms: _590  and  _593
REMARK  232  A    between atoms: _593  and  _594
REMARK  233  A    between atoms: _599  and  _600
REMARK  234  A    between atoms: _602  and  _604
REMARK  235  A    between atoms: _604  and  _605
REMARK  236  A    between atoms: _604  and  _607
REMARK  237  A    between atoms: _607  and  _608
REMARK  238  A    between atoms: _613  and  _614
REMARK  239  A    between atoms: _616  and  _618
REMARK  240  A    between atoms: _618  and  _619
REMARK  241  A    between atoms: _618  and  _621
REMARK  242  A    between atoms: _624  and  _626
REMARK  243  A    between atoms: _626  and  _627
REMARK  244  A    between atoms: _626  and  _629
REMARK  245  A    between atoms: _629  and  _630
REMARK  246  A    between atoms: _635  and  _637
REMARK  247  A    between atoms: _637  and  _638
REMARK  248  A    between atoms: _641  and  _643
REMARK  249  A    between atoms: _643  and  _644
REMARK  250  A    between atoms: _643  and  _646
REMARK  251  A    between atoms: _646  and  _647
REMARK  252  A    between atoms: _647  and  _648
REMARK  253  A    between atoms: _648  and  _649
REMARK  254  A    between atoms: _658  and  _660
REMARK  255  A    between atoms: _660  and  _661
REMARK  256  A    between atoms: _660  and  _663
REMARK  257  A    between atoms: _663  and  _664
REMARK  258  A    between atoms: _667  and  _669
REMARK  259  A    between atoms: _669  and  _670
REMARK  260  A    between atoms: _669  and  _672
REMARK  261  A    between atoms: _672  and  _673
REMARK  262  A    between atoms: _676  and  _678
REMARK  263  A    between atoms: _678  and  _679
REMARK  264  A    between atoms: _678  and  _681
REMARK  265  A    between atoms: _681  and  _682
REMARK  266  A    between atoms: _687  and  _689
REMARK  267  A    between atoms: _689  and  _690
REMARK  268  A    between atoms: _689  and  _692
REMARK  269  A    between atoms: _692  and  _693
REMARK                            x       y       z     vdW  Elec       q    Type
REMARK                         _______ _______ _______ _____ _____    ______ ____
ROOT
ATOM      1  O   HOH     1      42.038  32.228  14.372  0.00  0.00    +0.000 OA
ENDROOT
TORSDOF 0
REMARK  Name = ../refined-set-2016/1b7h/1b7h_pocket.pdb
REMARK  269 active torsions:
REMARK  status: ('A' for Active; 'I' for Inactive)
REMARK    1  A    between atoms: _1  and  _3
REMARK    2  A    between atoms: _3  and  _4
REMARK    3  A    between atoms: _6  and  _8
REMARK    4  A    between atoms: _8  and  _9
REMARK    5  A    between atoms: _8  and  _11
REMARK    6  A    between atoms: _11  and  _12
REMARK    7  A    between atoms: _14  and  _16
REMARK    8  A    between atoms: _16  and  _17
REMARK    9  A    between atoms: _16  and  _19
REMARK   10  A    between atoms: _19  and  _20
REMARK   11  A    between atoms: _20  and  _21
REMARK   12  A    between atoms: _26  and  _28
REMARK   13  A    between atoms: _28  and  _29
REMARK   14  A    between atoms: _28  and  _31
REMARK   15  A    between atoms: _31  and  _32
REMARK   16  A    between atoms: _35  and  _37
REMARK   17  A    between atoms: _37  and  _38
REMARK   18  A    between atoms: _37  and  _40
REMARK   19  A    between atoms: _40  and  _41
REMARK   20  A    between atoms: _41  and  _42
REMARK   21  A    between atoms: _45  and  _47
REMARK   22  A    between atoms: _47  and  _48
REMARK   23  A    between atoms: _50  and  _52
REMARK   24  A    between atoms: _52  and  _53
REMARK   25  A    between atoms: _52  and  _55
REMARK   26  A    between atoms: _59  and  _60
REMARK   27  A    between atoms: _65  and  _67
REMARK   28  A    between atoms: _67  and  _68
REMARK   29  A    between atoms: _67  and  _70
REMARK   30  A    between atoms: _70  and  _71
REMARK   31  A    between atoms: _71  and  _72
REMARK   32  A    between atoms: _75  and  _77
REMARK   33  A    between atoms: _77  and  _78
REMARK   34  A    between atoms: _77  and  _80
REMARK   35  A    between atoms: _80  and  _81
REMARK   36  A    between atoms: _83  and  _85
REMARK   37  A    between atoms: _85  and  _86
REMARK   38  A    between atoms: _85  and  _88
REMARK   39  A    between atoms: _88  and  _89
REMARK   40  A    between atoms: _94  and  _96
REMARK   41  A    between atoms: _96  and  _97
REMARK   42  A    between atoms: _96  and  _99
REMARK   43  A    between atoms: _99  and  _100
REMARK   44  A    between atoms: _100  and  _101
REMARK   45  A    between atoms: _101  and  _102
REMARK   46  A    between atoms: _112  and  _113
REMARK   47  A    between atoms: _118  and  _120
REMARK   48  A    between atoms: _120  and  _121
REMARK   49  A    between atoms: _120  and  _123
REMARK   50  A    between atoms: _123  and  _124
REMARK   51  A    between atoms: _129  and  _130
REMARK   52  A    between atoms: _132  and  _134
REMARK   53  A    between atoms: _134  and  _135
REMARK   54  A    between atoms: _134  and  _137
REMARK   55  A    between atoms: _137  and  _138
REMARK   56  A    between atoms: _143  and  _144
REMARK   57  A    between atoms: _146  and  _148
REMARK   58  A    between atoms: _148  and  _149
REMARK   59  A    between atoms: _148  and  _151
REMARK   60  A    between atoms: _154  and  _156
REMARK   61  A    between atoms: _156  and  _157
REMARK   62  A    between atoms: _156  and  _159
REMARK   63  A    between atoms: _159  and  _160
REMARK   64  A    between atoms: _166  and  _167
REMARK   65  A    between atoms: _172  and  _174
REMARK   66  A    between atoms: _174  and  _175
REMARK   67  A    between atoms: _174  and  _177
REMARK   68  A    between atoms: _177  and  _178
REMARK   69  A    between atoms: _180  and  _182
REMARK   70  A    between atoms: _182  and  _183
REMARK   71  A    between atoms: _182  and  _185
REMARK   72  A    between atoms: _185  and  _186
REMARK   73  A    between atoms: _191  and  _192
REMARK   74  A    between atoms: _194  and  _196
REMARK   75  A    between atoms: _196  and  _197
REMARK   76  A    between atoms: _196  and  _199
REMARK   77  A    between atoms: _199  and  _200
REMARK   78  A    between atoms: _205  and  _207
REMARK   79  A    between atoms: _207  and  _208
REMARK   80  A    between atoms: _207  and  _210
REMARK   81  A    between atoms: _210  and  _211
REMARK   82  A    between atoms: _216  and  _218
REMARK   83  A    between atoms: _218  and  _219
REMARK   84  A    between atoms: _218  and  _221
REMARK   85  A    between atoms: _221  and  _222
REMARK   86  A    between atoms: _222  and  _223
REMARK   87  A    between atoms: _225  and  _227
REMARK   88  A    between atoms: _227  and  _228
REMARK   89  A    between atoms: _227  and  _230
REMARK   90  A    between atoms: _230  and  _231
REMARK   91  A    between atoms: _236  and  _237
REMARK   92  A    between atoms: _239  and  _241
REMARK   93  A    between atoms: _241  and  _242
REMARK   94  A    between atoms: _241  and  _244
REMARK   95  A    between atoms: _244  and  _245
REMARK   96  A    between atoms: _248  and  _250
REMARK   97  A    between atoms: _250  and  _251
REMARK   98  A    between atoms: _250  and  _253
REMARK   99  A    between atoms: _253  and  _254
REMARK  100  A    between atoms: _254  and  _484
REMARK  101  A    between atoms: _255  and  _257
REMARK  102  A    between atoms: _257  and  _258
REMARK  103  A    between atoms: _257  and  _260
REMARK  104  A    between atoms: _260  and  _261
REMARK  105  A    between atoms: _264  and  _266
REMARK  106  A    between atoms: _266  and  _267
REMARK  107  A    between atoms: _266  and  _269
REMARK  108  A    between atoms: _269  and  _270
REMARK  109  A    between atoms: _275  and  _276
REMARK  110  A    between atoms: _278  and  _280
REMARK  111  A    between atoms: _280  and  _281
REMARK  112  A    between atoms: _280  and  _283
REMARK  113  A    between atoms: _283  and  _284
REMARK  114  A    between atoms: _289  and  _290
REMARK  115  A    between atoms: _292  and  _294
REMARK  116  A    between atoms: _294  and  _295
REMARK  117  A    between atoms: _294  and  _297
REMARK  118  A    between atoms: _297  and  _298
REMARK  119  A    between atoms: _298  and  _299
REMARK  120  A    between atoms: _302  and  _304
REMARK  121  A    between atoms: _304  and  _305
REMARK  122  A    between atoms: _304  and  _307
REMARK  123  A    between atoms: _307  and  _308
REMARK  124  A    between atoms: _308  and  _309
REMARK  125  A    between atoms: _309  and  _310
REMARK  126  A    between atoms: _310  and  _311
REMARK  127  A    between atoms: _315  and  _317
REMARK  128  A    between atoms: _317  and  _318
REMARK  129  A    between atoms: _317  and  _320
REMARK  130  A    between atoms: _320  and  _321
REMARK  131  A    between atoms: _326  and  _327
REMARK  132  A    between atoms: _329  and  _331
REMARK  133  A    between atoms: _331  and  _332
REMARK  134  A    between atoms: _331  and  _334
REMARK  135  A    between atoms: _334  and  _335
REMARK  136  A    between atoms: _340  and  _342
REMARK  137  A    between atoms: _342  and  _343
REMARK  138  A    between atoms: _342  and  _345
REMARK  139  A    between atoms: _345  and  _346
REMARK  140  A    between atoms: _349  and  _351
REMARK  141  A    between atoms: _351  and  _352
REMARK  142  A    between atoms: _351  and  _354
REMARK  143  A    between atoms: _354  and  _355
REMARK  144  A    between atoms: _360  and  _362
REMARK  145  A    between atoms: _362  and  _363
REMARK  146  A    between atoms: _362  and  _365
REMARK  147  A    between atoms: _365  and  _366
REMARK  148  A    between atoms: _376  and  _378
REMARK  149  A    between atoms: _378  and  _379
REMARK  150  A    between atoms: _378  and  _381
REMARK  151  A    between atoms: _381  and  _382
REMARK  152  A    between atoms: _388  and  _390
REMARK  153  A    between atoms: _390  and  _391
REMARK  154  A    between atoms: _390  and  _393
REMARK  155  A    between atoms: _393  and  _394
REMARK  156  A    between atoms: _397  and  _399
REMARK  157  A    between atoms: _399  and  _400
REMARK  158  A    between atoms: _399  and  _402
REMARK  159  A    between atoms: _402  and  _403
REMARK  160  A    between atoms: _406  and  _408
REMARK  161  A    between atoms: _408  and  _409
REMARK  162  A    between atoms: _408  and  _411
REMARK  163  A    between atoms: _411  and  _412
REMARK  164  A    between atoms: _412  and  _413
REMARK  165  A    between atoms: _413  and  _414
REMARK  166  A    between atoms: _423  and  _425
REMARK  167  A    between atoms: _425  and  _426
REMARK  168  A    between atoms: _425  and  _428
REMARK  169  A    between atoms: _428  and  _429
REMARK  170  A    between atoms: _434  and  _436
REMARK  171  A    between atoms: _436  and  _437
REMARK  172  A    between atoms: _436  and  _439
REMARK  173  A    between atoms: _439  and  _440
REMARK  174  A    between atoms: _440  and  _441
REMARK  175  A    between atoms: _441  and  _442
REMARK  176  A    between atoms: _451  and  _453
REMARK  177  A    between atoms: _453  and  _454
REMARK  178  A    between atoms: _457  and  _459
REMARK  179  A    between atoms: _459  and  _460
REMARK  180  A    between atoms: _462  and  _464
REMARK  181  A    between atoms: _464  and  _465
REMARK  182  A    between atoms: _464  and  _467
REMARK  183  A    between atoms: _467  and  _468
REMARK  184  A    between atoms: _478  and  _480
REMARK  185  A    between atoms: _480  and  _481
REMARK  186  A    between atoms: _480  and  _483
REMARK  187  A    between atoms: _483  and  _484
REMARK  188  A    between atoms: _485  and  _487
REMARK  189  A    between atoms: _487  and  _488
REMARK  190  A    between atoms: _491  and  _493
REMARK  191  A    between atoms: _493  and  _494
REMARK  192  A    between atoms: _493  and  _496
REMARK  193  A    between atoms: _496  and  _497
REMARK  194  A    between atoms: _500  and  _502
REMARK  195  A    between atoms: _502  and  _503
REMARK  196  A    between atoms: _502  and  _505
REMARK  197  A    between atoms: _505  and  _506
REMARK  198  A    between atoms: _511  and  _512
REMARK  199  A    between atoms: _514  and  _516
REMARK  200  A    between atoms: _516  and  _517
REMARK  201  A    between atoms: _516  and  _519
REMARK  202  A    between atoms: _519  and  _520
REMARK  203  A    between atoms: _522  and  _524
REMARK  204  A    between atoms: _524  and  _525
REMARK  205  A    between atoms: _524  and  _527
REMARK  206  A    between atoms: _527  and  _528
REMARK  207  A    between atoms: _534  and  _536
REMARK  208  A    between atoms: _536  and  _537
REMARK  209  A    between atoms: _536  and  _539
REMARK  210  A    between atoms: _539  and  _540
REMARK  211  A    between atoms: _543  and  _545
REMARK  212  A    between atoms: _545  and  _546
REMARK  213  A    between atoms: _545  and  _548
REMARK  214  A    between atoms: _548  and  _549
REMARK  215  A    between atoms: _551  and  _553
REMARK  216  A    between atoms: _553  and  _554
REMARK  217  A    between atoms: _553  and  _556
REMARK  218  A    between atoms: _556  and  _557
REMARK  219  A    between atoms: _562  and  _564
REMARK  220  A    between atoms: _564  and  _565
REMARK  221  A    between atoms: _564  and  _567
REMARK  222  A    between atoms: _567  and  _568
REMARK  223  A    between atoms: _573  and  _575
REMARK  224  A    between atoms: _575  and  _576
REMARK  225  A    between atoms: _575  and  _578
REMARK  226  A    between atoms: _578  and  _579
REMARK  227  A    between atoms: _582  and  _584
REMARK  228  A    between atoms: _584  and  _585
REMARK  229  A    between atoms: _588  and  _590
REMARK  230  A    between atoms: _590  and  _591
REMARK  231  A    between atoms: _590  and  _593
REMARK  232  A    between atoms: _593  and  _594
REMARK  233  A    between atoms: _599  and  _600
REMARK  234  A    between atoms: _602  and  _604
REMARK  235  A    between atoms: _604  and  _605
REMARK  236  A    between atoms: _604  and  _607
REMARK  237  A    between atoms: _607  and  _608
REMARK  238  A    between atoms: _613  and  _614
REMARK  239  A    between atoms: _616  and  _618
REMARK  240  A    between atoms: _618  and  _619
REMARK  241  A    between atoms: _618  and  _621
REMARK  242  A    between atoms: _624  and  _626
REMARK  243  A    between atoms: _626  and  _627
REMARK  244  A    between atoms: _626  and  _629
REMARK  245  A    between atoms: _629  and  _630
REMARK  246  A    between atoms: _635  and  _637
REMARK  247  A    between atoms: _637  and  _638
REMARK  248  A    between atoms: _641  and  _643
REMARK  249  A    between atoms: _643  and  _644
REMARK  250  A    between atoms: _643  and  _646
REMARK  251  A    between atoms: _646  and  _647
REMARK  252  A    between atoms: _647  and  _648
REMARK  253  A    between atoms: _648  and  _649
REMARK  254  A    between atoms: _658  and  _660
REMARK  255  A    between atoms: _660  and  _661
REMARK  256  A    between atoms: _660  and  _663
REMARK  257  A    between atoms: _663  and  _664
REMARK  258  A    between atoms: _667  and  _669
REMARK  259  A    between atoms: _669  and  _670
REMARK  260  A    between atoms: _669  and  _672
REMARK  261  A    between atoms: _672  and  _673
REMARK  262  A    between atoms: _676  and  _678
REMARK  263  A    between atoms: _678  and  _679
REMARK  264  A    between atoms: _678  and  _681
REMARK  265  A    between atoms: _681  and  _682
REMARK  266  A    between atoms: _687  and  _689
REMARK  267  A    between atoms: _689  and  _690
REMARK  268  A    between atoms: _689  and  _692
REMARK  269  A    between atoms: _692  and  _693
REMARK                            x       y       z     vdW  Elec       q    Type
REMARK                         _______ _______ _______ _____ _____    ______ ____
ROOT
ATOM      1  O   HOH     1      44.982  32.121  30.257  0.00  0.00    +0.000 OA
ENDROOT
TORSDOF 0
REMARK  Name = ../refined-set-2016/1b7h/1b7h_pocket.pdb
REMARK  269 active torsions:
REMARK  status: ('A' for Active; 'I' for Inactive)
REMARK    1  A    between atoms: _1  and  _3
REMARK    2  A    between atoms: _3  and  _4
REMARK    3  A    between atoms: _6  and  _8
REMARK    4  A    between atoms: _8  and  _9
REMARK    5  A    between atoms: _8  and  _11
REMARK    6  A    between atoms: _11  and  _12
REMARK    7  A    between atoms: _14  and  _16
REMARK    8  A    between atoms: _16  and  _17
REMARK    9  A    between atoms: _16  and  _19
REMARK   10  A    between atoms: _19  and  _20
REMARK   11  A    between atoms: _20  and  _21
REMARK   12  A    between atoms: _26  and  _28
REMARK   13  A    between atoms: _28  and  _29
REMARK   14  A    between atoms: _28  and  _31
REMARK   15  A    between atoms: _31  and  _32
REMARK   16  A    between atoms: _35  and  _37
REMARK   17  A    between atoms: _37  and  _38
REMARK   18  A    between atoms: _37  and  _40
REMARK   19  A    between atoms: _40  and  _41
REMARK   20  A    between atoms: _41  and  _42
REMARK   21  A    between atoms: _45  and  _47
REMARK   22  A    between atoms: _47  and  _48
REMARK   23  A    between atoms: _50  and  _52
REMARK   24  A    between atoms: _52  and  _53
REMARK   25  A    between atoms: _52  and  _55
REMARK   26  A    between atoms: _59  and  _60
REMARK   27  A    between atoms: _65  and  _67
REMARK   28  A    between atoms: _67  and  _68
REMARK   29  A    between atoms: _67  and  _70
REMARK   30  A    between atoms: _70  and  _71
REMARK   31  A    between atoms: _71  and  _72
REMARK   32  A    between atoms: _75  and  _77
REMARK   33  A    between atoms: _77  and  _78
REMARK   34  A    between atoms: _77  and  _80
REMARK   35  A    between atoms: _80  and  _81
REMARK   36  A    between atoms: _83  and  _85
REMARK   37  A    between atoms: _85  and  _86
REMARK   38  A    between atoms: _85  and  _88
REMARK   39  A    between atoms: _88  and  _89
REMARK   40  A    between atoms: _94  and  _96
REMARK   41  A    between atoms: _96  and  _97
REMARK   42  A    between atoms: _96  and  _99
REMARK   43  A    between atoms: _99  and  _100
REMARK   44  A    between atoms: _100  and  _101
REMARK   45  A    between atoms: _101  and  _102
REMARK   46  A    between atoms: _112  and  _113
REMARK   47  A    between atoms: _118  and  _120
REMARK   48  A    between atoms: _120  and  _121
REMARK   49  A    between atoms: _120  and  _123
REMARK   50  A    between atoms: _123  and  _124
REMARK   51  A    between atoms: _129  and  _130
REMARK   52  A    between atoms: _132  and  _134
REMARK   53  A    between atoms: _134  and  _135
REMARK   54  A    between atoms: _134  and  _137
REMARK   55  A    between atoms: _137  and  _138
REMARK   56  A    between atoms: _143  and  _144
REMARK   57  A    between atoms: _146  and  _148
REMARK   58  A    between atoms: _148  and  _149
REMARK   59  A    between atoms: _148  and  _151
REMARK   60  A    between atoms: _154  and  _156
REMARK   61  A    between atoms: _156  and  _157
REMARK   62  A    between atoms: _156  and  _159
REMARK   63  A    between atoms: _159  and  _160
REMARK   64  A    between atoms: _166  and  _167
REMARK   65  A    between atoms: _172  and  _174
REMARK   66  A    between atoms: _174  and  _175
REMARK   67  A    between atoms: _174  and  _177
REMARK   68  A    between atoms: _177  and  _178
REMARK   69  A    between atoms: _180  and  _182
REMARK   70  A    between atoms: _182  and  _183
REMARK   71  A    between atoms: _182  and  _185
REMARK   72  A    between atoms: _185  and  _186
REMARK   73  A    between atoms: _191  and  _192
REMARK   74  A    between atoms: _194  and  _196
REMARK   75  A    between atoms: _196  and  _197
REMARK   76  A    between atoms: _196  and  _199
REMARK   77  A    between atoms: _199  and  _200
REMARK   78  A    between atoms: _205  and  _207
REMARK   79  A    between atoms: _207  and  _208
REMARK   80  A    between atoms: _207  and  _210
REMARK   81  A    between atoms: _210  and  _211
REMARK   82  A    between atoms: _216  and  _218
REMARK   83  A    between atoms: _218  and  _219
REMARK   84  A    between atoms: _218  and  _221
REMARK   85  A    between atoms: _221  and  _222
REMARK   86  A    between atoms: _222  and  _223
REMARK   87  A    between atoms: _225  and  _227
REMARK   88  A    between atoms: _227  and  _228
REMARK   89  A    between atoms: _227  and  _230
REMARK   90  A    between atoms: _230  and  _231
REMARK   91  A    between atoms: _236  and  _237
REMARK   92  A    between atoms: _239  and  _241
REMARK   93  A    between atoms: _241  and  _242
REMARK   94  A    between atoms: _241  and  _244
REMARK   95  A    between atoms: _244  and  _245
REMARK   96  A    between atoms: _248  and  _250
REMARK   97  A    between atoms: _250  and  _251
REMARK   98  A    between atoms: _250  and  _253
REMARK   99  A    between atoms: _253  and  _254
REMARK  100  A    between atoms: _254  and  _484
REMARK  101  A    between atoms: _255  and  _257
REMARK  102  A    between atoms: _257  and  _258
REMARK  103  A    between atoms: _257  and  _260
REMARK  104  A    between atoms: _260  and  _261
REMARK  105  A    between atoms: _264  and  _266
REMARK  106  A    between atoms: _266  and  _267
REMARK  107  A    between atoms: _266  and  _269
REMARK  108  A    between atoms: _269  and  _270
REMARK  109  A    between atoms: _275  and  _276
REMARK  110  A    between atoms: _278  and  _280
REMARK  111  A    between atoms: _280  and  _281
REMARK  112  A    between atoms: _280  and  _283
REMARK  113  A    between atoms: _283  and  _284
REMARK  114  A    between atoms: _289  and  _290
REMARK  115  A    between atoms: _292  and  _294
REMARK  116  A    between atoms: _294  and  _295
REMARK  117  A    between atoms: _294  and  _297
REMARK  118  A    between atoms: _297  and  _298
REMARK  119  A    between atoms: _298  and  _299
REMARK  120  A    between atoms: _302  and  _304
REMARK  121  A    between atoms: _304  and  _305
REMARK  122  A    between atoms: _304  and  _307
REMARK  123  A    between atoms: _307  and  _308
REMARK  124  A    between atoms: _308  and  _309
REMARK  125  A    between atoms: _309  and  _310
REMARK  126  A    between atoms: _310  and  _311
REMARK  127  A    between atoms: _315  and  _317
REMARK  128  A    between atoms: _317  and  _318
REMARK  129  A    between atoms: _317  and  _320
REMARK  130  A    between atoms: _320  and  _321
REMARK  131  A    between atoms: _326  and  _327
REMARK  132  A    between atoms: _329  and  _331
REMARK  133  A    between atoms: _331  and  _332
REMARK  134  A    between atoms: _331  and  _334
REMARK  135  A    between atoms: _334  and  _335
REMARK  136  A    between atoms: _340  and  _342
REMARK  137  A    between atoms: _342  and  _343
REMARK  138  A    between atoms: _342  and  _345
REMARK  139  A    between atoms: _345  and  _346
REMARK  140  A    between atoms: _349  and  _351
REMARK  141  A    between atoms: _351  and  _352
REMARK  142  A    between atoms: _351  and  _354
REMARK  143  A    between atoms: _354  and  _355
REMARK  144  A    between atoms: _360  and  _362
REMARK  145  A    between atoms: _362  and  _363
REMARK  146  A    between atoms: _362  and  _365
REMARK  147  A    between atoms: _365  and  _366
REMARK  148  A    between atoms: _376  and  _378
REMARK  149  A    between atoms: _378  and  _379
REMARK  150  A    between atoms: _378  and  _381
REMARK  151  A    between atoms: _381  and  _382
REMARK  152  A    between atoms: _388  and  _390
REMARK  153  A    between atoms: _390  and  _391
REMARK  154  A    between atoms: _390  and  _393
REMARK  155  A    between atoms: _393  and  _394
REMARK  156  A    between atoms: _397  and  _399
REMARK  157  A    between atoms: _399  and  _400
REMARK  158  A    between atoms: _399  and  _402
REMARK  159  A    between atoms: _402  and  _403
REMARK  160  A    between atoms: _406  and  _408
REMARK  161  A    between atoms: _408  and  _409
REMARK  162  A    between atoms: _408  and  _411
REMARK  163  A    between atoms: _411  and  _412
REMARK  164  A    between atoms: _412  and  _413
REMARK  165  A    between atoms: _413  and  _414
REMARK  166  A    between atoms: _423  and  _425
REMARK  167  A    between atoms: _425  and  _426
REMARK  168  A    between atoms: _425  and  _428
REMARK  169  A    between atoms: _428  and  _429
REMARK  170  A    between atoms: _434  and  _436
REMARK  171  A    between atoms: _436  and  _437
REMARK  172  A    between atoms: _436  and  _439
REMARK  173  A    between atoms: _439  and  _440
REMARK  174  A    between atoms: _440  and  _441
REMARK  175  A    between atoms: _441  and  _442
REMARK  176  A    between atoms: _451  and  _453
REMARK  177  A    between atoms: _453  and  _454
REMARK  178  A    between atoms: _457  and  _459
REMARK  179  A    between atoms: _459  and  _460
REMARK  180  A    between atoms: _462  and  _464
REMARK  181  A    between atoms: _464  and  _465
REMARK  182  A    between atoms: _464  and  _467
REMARK  183  A    between atoms: _467  and  _468
REMARK  184  A    between atoms: _478  and  _480
REMARK  185  A    between atoms: _480  and  _481
REMARK  186  A    between atoms: _480  and  _483
REMARK  187  A    between atoms: _483  and  _484
REMARK  188  A    between atoms: _485  and  _487
REMARK  189  A    between atoms: _487  and  _488
REMARK  190  A    between atoms: _491  and  _493
REMARK  191  A    between atoms: _493  and  _494
REMARK  192  A    between atoms: _493  and  _496
REMARK  193  A    between atoms: _496  and  _497
REMARK  194  A    between atoms: _500  and  _502
REMARK  195  A    between atoms: _502  and  _503
REMARK  196  A    between atoms: _502  and  _505
REMARK  197  A    between atoms: _505  and  _506
REMARK  198  A    between atoms: _511  and  _512
REMARK  199  A    between atoms: _514  and  _516
REMARK  200  A    between atoms: _516  and  _517
REMARK  201  A    between atoms: _516  and  _519
REMARK  202  A    between atoms: _519  and  _520
REMARK  203  A    between atoms: _522  and  _524
REMARK  204  A    between atoms: _524  and  _525
REMARK  205  A    between atoms: _524  and  _527
REMARK  206  A    between atoms: _527  and  _528
REMARK  207  A    between atoms: _534  and  _536
REMARK  208  A    between atoms: _536  and  _537
REMARK  209  A    between atoms: _536  and  _539
REMARK  210  A    between atoms: _539  and  _540
REMARK  211  A    between atoms: _543  and  _545
REMARK  212  A    between atoms: _545  and  _546
REMARK  213  A    between atoms: _545  and  _548
REMARK  214  A    between atoms: _548  and  _549
REMARK  215  A    between atoms: _551  and  _553
REMARK  216  A    between atoms: _553  and  _554
REMARK  217  A    between atoms: _553  and  _556
REMARK  218  A    between atoms: _556  and  _557
REMARK  219  A    between atoms: _562  and  _564
REMARK  220  A    between atoms: _564  and  _565
REMARK  221  A    between atoms: _564  and  _567
REMARK  222  A    between atoms: _567  and  _568
REMARK  223  A    between atoms: _573  and  _575
REMARK  224  A    between atoms: _575  and  _576
REMARK  225  A    between atoms: _575  and  _578
REMARK  226  A    between atoms: _578  and  _579
REMARK  227  A    between atoms: _582  and  _584
REMARK  228  A    between atoms: _584  and  _585
REMARK  229  A    between atoms: _588  and  _590
REMARK  230  A    between atoms: _590  and  _591
REMARK  231  A    between atoms: _590  and  _593
REMARK  232  A    between atoms: _593  and  _594
REMARK  233  A    between atoms: _599  and  _600
REMARK  234  A    between atoms: _602  and  _604
REMARK  235  A    between atoms: _604  and  _605
REMARK  236  A    between atoms: _604  and  _607
REMARK  237  A    between atoms: _607  and  _608
REMARK  238  A    between atoms: _613  and  _614
REMARK  239  A    between atoms: _616  and  _618
REMARK  240  A    between atoms: _618  and  _619
REMARK  241  A    between atoms: _618  and  _621
REMARK  242  A    between atoms: _624  and  _626
REMARK  243  A    between atoms: _626  and  _627
REMARK  244  A    between atoms: _626  and  _629
REMARK  245  A    between atoms: _629  and  _630
REMARK  246  A    between atoms: _635  and  _637
REMARK  247  A    between atoms: _637  and  _638
REMARK  248  A    between atoms: _641  and  _643
REMARK  249  A    between atoms: _643  and  _644
REMARK  250  A    between atoms: _643  and  _646
REMARK  251  A    between atoms: _646  and  _647
REMARK  252  A    between atoms: _647  and  _648
REMARK  253  A    between atoms: _648  and  _649
REMARK  254  A    between atoms: _658  and  _660
REMARK  255  A    between atoms: _660  and  _661
REMARK  256  A    between atoms: _660  and  _663
REMARK  257  A    between atoms: _663  and  _664
REMARK  258  A    between atoms: _667  and  _669
REMARK  259  A    between atoms: _669  and  _670
REMARK  260  A    between atoms: _669  and  _672
REMARK  261  A    between atoms: _672  and  _673
REMARK  262  A    between atoms: _676  and  _678
REMARK  263  A    between atoms: _678  and  _679
REMARK  264  A    between atoms: _678  and  _681
REMARK  265  A    between atoms: _681  and  _682
REMARK  266  A    between atoms: _687  and  _689
REMARK  267  A    between atoms: _689  and  _690
REMARK  268  A    between atoms: _689  and  _692
REMARK  269  A    between atoms: _692  and  _693
REMARK                            x       y       z     vdW  Elec       q    Type
REMARK                         _______ _______ _______ _____ _____    ______ ____
ROOT
ATOM      1  O   HOH     1      27.137  38.263  25.310  0.00  0.00    +0.000 OA
ENDROOT
TORSDOF 0
REMARK  Name = ../refined-set-2016/1b7h/1b7h_pocket.pdb
REMARK  269 active torsions:
REMARK  status: ('A' for Active; 'I' for Inactive)
REMARK    1  A    between atoms: _1  and  _3
REMARK    2  A    between atoms: _3  and  _4
REMARK    3  A    between atoms: _6  and  _8
REMARK    4  A    between atoms: _8  and  _9
REMARK    5  A    between atoms: _8  and  _11
REMARK    6  A    between atoms: _11  and  _12
REMARK    7  A    between atoms: _14  and  _16
REMARK    8  A    between atoms: _16  and  _17
REMARK    9  A    between atoms: _16  and  _19
REMARK   10  A    between atoms: _19  and  _20
REMARK   11  A    between atoms: _20  and  _21
REMARK   12  A    between atoms: _26  and  _28
REMARK   13  A    between atoms: _28  and  _29
REMARK   14  A    between atoms: _28  and  _31
REMARK   15  A    between atoms: _31  and  _32
REMARK   16  A    between atoms: _35  and  _37
REMARK   17  A    between atoms: _37  and  _38
REMARK   18  A    between atoms: _37  and  _40
REMARK   19  A    between atoms: _40  and  _41
REMARK   20  A    between atoms: _41  and  _42
REMARK   21  A    between atoms: _45  and  _47
REMARK   22  A    between atoms: _47  and  _48
REMARK   23  A    between atoms: _50  and  _52
REMARK   24  A    between atoms: _52  and  _53
REMARK   25  A    between atoms: _52  and  _55
REMARK   26  A    between atoms: _59  and  _60
REMARK   27  A    between atoms: _65  and  _67
REMARK   28  A    between atoms: _67  and  _68
REMARK   29  A    between atoms: _67  and  _70
REMARK   30  A    between atoms: _70  and  _71
REMARK   31  A    between atoms: _71  and  _72
REMARK   32  A    between atoms: _75  and  _77
REMARK   33  A    between atoms: _77  and  _78
REMARK   34  A    between atoms: _77  and  _80
REMARK   35  A    between atoms: _80  and  _81
REMARK   36  A    between atoms: _83  and  _85
REMARK   37  A    between atoms: _85  and  _86
REMARK   38  A    between atoms: _85  and  _88
REMARK   39  A    between atoms: _88  and  _89
REMARK   40  A    between atoms: _94  and  _96
REMARK   41  A    between atoms: _96  and  _97
REMARK   42  A    between atoms: _96  and  _99
REMARK   43  A    between atoms: _99  and  _100
REMARK   44  A    between atoms: _100  and  _101
REMARK   45  A    between atoms: _101  and  _102
REMARK   46  A    between atoms: _112  and  _113
REMARK   47  A    between atoms: _118  and  _120
REMARK   48  A    between atoms: _120  and  _121
REMARK   49  A    between atoms: _120  and  _123
REMARK   50  A    between atoms: _123  and  _124
REMARK   51  A    between atoms: _129  and  _130
REMARK   52  A    between atoms: _132  and  _134
REMARK   53  A    between atoms: _134  and  _135
REMARK   54  A    between atoms: _134  and  _137
REMARK   55  A    between atoms: _137  and  _138
REMARK   56  A    between atoms: _143  and  _144
REMARK   57  A    between atoms: _146  and  _148
REMARK   58  A    between atoms: _148  and  _149
REMARK   59  A    between atoms: _148  and  _151
REMARK   60  A    between atoms: _154  and  _156
REMARK   61  A    between atoms: _156  and  _157
REMARK   62  A    between atoms: _156  and  _159
REMARK   63  A    between atoms: _159  and  _160
REMARK   64  A    between atoms: _166  and  _167
REMARK   65  A    between atoms: _172  and  _174
REMARK   66  A    between atoms: _174  and  _175
REMARK   67  A    between atoms: _174  and  _177
REMARK   68  A    between atoms: _177  and  _178
REMARK   69  A    between atoms: _180  and  _182
REMARK   70  A    between atoms: _182  and  _183
REMARK   71  A    between atoms: _182  and  _185
REMARK   72  A    between atoms: _185  and  _186
REMARK   73  A    between atoms: _191  and  _192
REMARK   74  A    between atoms: _194  and  _196
REMARK   75  A    between atoms: _196  and  _197
REMARK   76  A    between atoms: _196  and  _199
REMARK   77  A    between atoms: _199  and  _200
REMARK   78  A    between atoms: _205  and  _207
REMARK   79  A    between atoms: _207  and  _208
REMARK   80  A    between atoms: _207  and  _210
REMARK   81  A    between atoms: _210  and  _211
REMARK   82  A    between atoms: _216  and  _218
REMARK   83  A    between atoms: _218  and  _219
REMARK   84  A    between atoms: _218  and  _221
REMARK   85  A    between atoms: _221  and  _222
REMARK   86  A    between atoms: _222  and  _223
REMARK   87  A    between atoms: _225  and  _227
REMARK   88  A    between atoms: _227  and  _228
REMARK   89  A    between atoms: _227  and  _230
REMARK   90  A    between atoms: _230  and  _231
REMARK   91  A    between atoms: _236  and  _237
REMARK   92  A    between atoms: _239  and  _241
REMARK   93  A    between atoms: _241  and  _242
REMARK   94  A    between atoms: _241  and  _244
REMARK   95  A    between atoms: _244  and  _245
REMARK   96  A    between atoms: _248  and  _250
REMARK   97  A    between atoms: _250  and  _251
REMARK   98  A    between atoms: _250  and  _253
REMARK   99  A    between atoms: _253  and  _254
REMARK  100  A    between atoms: _254  and  _484
REMARK  101  A    between atoms: _255  and  _257
REMARK  102  A    between atoms: _257  and  _258
REMARK  103  A    between atoms: _257  and  _260
REMARK  104  A    between atoms: _260  and  _261
REMARK  105  A    between atoms: _264  and  _266
REMARK  106  A    between atoms: _266  and  _267
REMARK  107  A    between atoms: _266  and  _269
REMARK  108  A    between atoms: _269  and  _270
REMARK  109  A    between atoms: _275  and  _276
REMARK  110  A    between atoms: _278  and  _280
REMARK  111  A    between atoms: _280  and  _281
REMARK  112  A    between atoms: _280  and  _283
REMARK  113  A    between atoms: _283  and  _284
REMARK  114  A    between atoms: _289  and  _290
REMARK  115  A    between atoms: _292  and  _294
REMARK  116  A    between atoms: _294  and  _295
REMARK  117  A    between atoms: _294  and  _297
REMARK  118  A    between atoms: _297  and  _298
REMARK  119  A    between atoms: _298  and  _299
REMARK  120  A    between atoms: _302  and  _304
REMARK  121  A    between atoms: _304  and  _305
REMARK  122  A    between atoms: _304  and  _307
REMARK  123  A    between atoms: _307  and  _308
REMARK  124  A    between atoms: _308  and  _309
REMARK  125  A    between atoms: _309  and  _310
REMARK  126  A    between atoms: _310  and  _311
REMARK  127  A    between atoms: _315  and  _317
REMARK  128  A    between atoms: _317  and  _318
REMARK  129  A    between atoms: _317  and  _320
REMARK  130  A    between atoms: _320  and  _321
REMARK  131  A    between atoms: _326  and  _327
REMARK  132  A    between atoms: _329  and  _331
REMARK  133  A    between atoms: _331  and  _332
REMARK  134  A    between atoms: _331  and  _334
REMARK  135  A    between atoms: _334  and  _335
REMARK  136  A    between atoms: _340  and  _342
REMARK  137  A    between atoms: _342  and  _343
REMARK  138  A    between atoms: _342  and  _345
REMARK  139  A    between atoms: _345  and  _346
REMARK  140  A    between atoms: _349  and  _351
REMARK  141  A    between atoms: _351  and  _352
REMARK  142  A    between atoms: _351  and  _354
REMARK  143  A    between atoms: _354  and  _355
REMARK  144  A    between atoms: _360  and  _362
REMARK  145  A    between atoms: _362  and  _363
REMARK  146  A    between atoms: _362  and  _365
REMARK  147  A    between atoms: _365  and  _366
REMARK  148  A    between atoms: _376  and  _378
REMARK  149  A    between atoms: _378  and  _379
REMARK  150  A    between atoms: _378  and  _381
REMARK  151  A    between atoms: _381  and  _382
REMARK  152  A    between atoms: _388  and  _390
REMARK  153  A    between atoms: _390  and  _391
REMARK  154  A    between atoms: _390  and  _393
REMARK  155  A    between atoms: _393  and  _394
REMARK  156  A    between atoms: _397  and  _399
REMARK  157  A    between atoms: _399  and  _400
REMARK  158  A    between atoms: _399  and  _402
REMARK  159  A    between atoms: _402  and  _403
REMARK  160  A    between atoms: _406  and  _408
REMARK  161  A    between atoms: _408  and  _409
REMARK  162  A    between atoms: _408  and  _411
REMARK  163  A    between atoms: _411  and  _412
REMARK  164  A    between atoms: _412  and  _413
REMARK  165  A    between atoms: _413  and  _414
REMARK  166  A    between atoms: _423  and  _425
REMARK  167  A    between atoms: _425  and  _426
REMARK  168  A    between atoms: _425  and  _428
REMARK  169  A    between atoms: _428  and  _429
REMARK  170  A    between atoms: _434  and  _436
REMARK  171  A    between atoms: _436  and  _437
REMARK  172  A    between atoms: _436  and  _439
REMARK  173  A    between atoms: _439  and  _440
REMARK  174  A    between atoms: _440  and  _441
REMARK  175  A    between atoms: _441  and  _442
REMARK  176  A    between atoms: _451  and  _453
REMARK  177  A    between atoms: _453  and  _454
REMARK  178  A    between atoms: _457  and  _459
REMARK  179  A    between atoms: _459  and  _460
REMARK  180  A    between atoms: _462  and  _464
REMARK  181  A    between atoms: _464  and  _465
REMARK  182  A    between atoms: _464  and  _467
REMARK  183  A    between atoms: _467  and  _468
REMARK  184  A    between atoms: _478  and  _480
REMARK  185  A    between atoms: _480  and  _481
REMARK  186  A    between atoms: _480  and  _483
REMARK  187  A    between atoms: _483  and  _484
REMARK  188  A    between atoms: _485  and  _487
REMARK  189  A    between atoms: _487  and  _488
REMARK  190  A    between atoms: _491  and  _493
REMARK  191  A    between atoms: _493  and  _494
REMARK  192  A    between atoms: _493  and  _496
REMARK  193  A    between atoms: _496  and  _497
REMARK  194  A    between atoms: _500  and  _502
REMARK  195  A    between atoms: _502  and  _503
REMARK  196  A    between atoms: _502  and  _505
REMARK  197  A    between atoms: _505  and  _506
REMARK  198  A    between atoms: _511  and  _512
REMARK  199  A    between atoms: _514  and  _516
REMARK  200  A    between atoms: _516  and  _517
REMARK  201  A    between atoms: _516  and  _519
REMARK  202  A    between atoms: _519  and  _520
REMARK  203  A    between atoms: _522  and  _524
REMARK  204  A    between atoms: _524  and  _525
REMARK  205  A    between atoms: _524  and  _527
REMARK  206  A    between atoms: _527  and  _528
REMARK  207  A    between atoms: _534  and  _536
REMARK  208  A    between atoms: _536  and  _537
REMARK  209  A    between atoms: _536  and  _539
REMARK  210  A    between atoms: _539  and  _540
REMARK  211  A    between atoms: _543  and  _545
REMARK  212  A    between atoms: _545  and  _546
REMARK  213  A    between atoms: _545  and  _548
REMARK  214  A    between atoms: _548  and  _549
REMARK  215  A    between atoms: _551  and  _553
REMARK  216  A    between atoms: _553  and  _554
REMARK  217  A    between atoms: _553  and  _556
REMARK  218  A    between atoms: _556  and  _557
REMARK  219  A    between atoms: _562  and  _564
REMARK  220  A    between atoms: _564  and  _565
REMARK  221  A    between atoms: _564  and  _567
REMARK  222  A    between atoms: _567  and  _568
REMARK  223  A    between atoms: _573  and  _575
REMARK  224  A    between atoms: _575  and  _576
REMARK  225  A    between atoms: _575  and  _578
REMARK  226  A    between atoms: _578  and  _579
REMARK  227  A    between atoms: _582  and  _584
REMARK  228  A    between atoms: _584  and  _585
REMARK  229  A    between atoms: _588  and  _590
REMARK  230  A    between atoms: _590  and  _591
REMARK  231  A    between atoms: _590  and  _593
REMARK  232  A    between atoms: _593  and  _594
REMARK  233  A    between atoms: _599  and  _600
REMARK  234  A    between atoms: _602  and  _604
REMARK  235  A    between atoms: _604  and  _605
REMARK  236  A    between atoms: _604  and  _607
REMARK  237  A    between atoms: _607  and  _608
REMARK  238  A    between atoms: _613  and  _614
REMARK  239  A    between atoms: _616  and  _618
REMARK  240  A    between atoms: _618  and  _619
REMARK  241  A    between atoms: _618  and  _621
REMARK  242  A    between atoms: _624  and  _626
REMARK  243  A    between atoms: _626  and  _627
REMARK  244  A    between atoms: _626  and  _629
REMARK  245  A    between atoms: _629  and  _630
REMARK  246  A    between atoms: _635  and  _637
REMARK  247  A    between atoms: _637  and  _638
REMARK  248  A    between atoms: _641  and  _643
REMARK  249  A    between atoms: _643  and  _644
REMARK  250  A    between atoms: _643  and  _646
REMARK  251  A    between atoms: _646  and  _647
REMARK  252  A    between atoms: _647  and  _648
REMARK  253  A    between atoms: _648  and  _649
REMARK  254  A    between atoms: _658  and  _660
REMARK  255  A    between atoms: _660  and  _661
REMARK  256  A    between atoms: _660  and  _663
REMARK  257  A    between atoms: _663  and  _664
REMARK  258  A    between atoms: _667  and  _669
REMARK  259  A    between atoms: _669  and  _670
REMARK  260  A    between atoms: _669  and  _672
REMARK  261  A    between atoms: _672  and  _673
REMARK  262  A    between atoms: _676  and  _678
REMARK  263  A    between atoms: _678  and  _679
REMARK  264  A    between atoms: _678  and  _681
REMARK  265  A    between atoms: _681  and  _682
REMARK  266  A    between atoms: _687  and  _689
REMARK  267  A    between atoms: _689  and  _690
REMARK  268  A    between atoms: _689  and  _692
REMARK  269  A    between atoms: _692  and  _693
REMARK                            x       y       z     vdW  Elec       q    Type
REMARK                         _______ _______ _______ _____ _____    ______ ____
ROOT
ATOM      1  O   HOH     1      32.765  44.369  23.862  0.00  0.00    +0.000 OA
ENDROOT
TORSDOF 0
REMARK  Name = ../refined-set-2016/1b7h/1b7h_pocket.pdb
REMARK  269 active torsions:
REMARK  status: ('A' for Active; 'I' for Inactive)
REMARK    1  A    between atoms: _1  and  _3
REMARK    2  A    between atoms: _3  and  _4
REMARK    3  A    between atoms: _6  and  _8
REMARK    4  A    between atoms: _8  and  _9
REMARK    5  A    between atoms: _8  and  _11
REMARK    6  A    between atoms: _11  and  _12
REMARK    7  A    between atoms: _14  and  _16
REMARK    8  A    between atoms: _16  and  _17
REMARK    9  A    between atoms: _16  and  _19
REMARK   10  A    between atoms: _19  and  _20
REMARK   11  A    between atoms: _20  and  _21
REMARK   12  A    between atoms: _26  and  _28
REMARK   13  A    between atoms: _28  and  _29
REMARK   14  A    between atoms: _28  and  _31
REMARK   15  A    between atoms: _31  and  _32
REMARK   16  A    between atoms: _35  and  _37
REMARK   17  A    between atoms: _37  and  _38
REMARK   18  A    between atoms: _37  and  _40
REMARK   19  A    between atoms: _40  and  _41
REMARK   20  A    between atoms: _41  and  _42
REMARK   21  A    between atoms: _45  and  _47
REMARK   22  A    between atoms: _47  and  _48
REMARK   23  A    between atoms: _50  and  _52
REMARK   24  A    between atoms: _52  and  _53
REMARK   25  A    between atoms: _52  and  _55
REMARK   26  A    between atoms: _59  and  _60
REMARK   27  A    between atoms: _65  and  _67
REMARK   28  A    between atoms: _67  and  _68
REMARK   29  A    between atoms: _67  and  _70
REMARK   30  A    between atoms: _70  and  _71
REMARK   31  A    between atoms: _71  and  _72
REMARK   32  A    between atoms: _75  and  _77
REMARK   33  A    between atoms: _77  and  _78
REMARK   34  A    between atoms: _77  and  _80
REMARK   35  A    between atoms: _80  and  _81
REMARK   36  A    between atoms: _83  and  _85
REMARK   37  A    between atoms: _85  and  _86
REMARK   38  A    between atoms: _85  and  _88
REMARK   39  A    between atoms: _88  and  _89
REMARK   40  A    between atoms: _94  and  _96
REMARK   41  A    between atoms: _96  and  _97
REMARK   42  A    between atoms: _96  and  _99
REMARK   43  A    between atoms: _99  and  _100
REMARK   44  A    between atoms: _100  and  _101
REMARK   45  A    between atoms: _101  and  _102
REMARK   46  A    between atoms: _112  and  _113
REMARK   47  A    between atoms: _118  and  _120
REMARK   48  A    between atoms: _120  and  _121
REMARK   49  A    between atoms: _120  and  _123
REMARK   50  A    between atoms: _123  and  _124
REMARK   51  A    between atoms: _129  and  _130
REMARK   52  A    between atoms: _132  and  _134
REMARK   53  A    between atoms: _134  and  _135
REMARK   54  A    between atoms: _134  and  _137
REMARK   55  A    between atoms: _137  and  _138
REMARK   56  A    between atoms: _143  and  _144
REMARK   57  A    between atoms: _146  and  _148
REMARK   58  A    between atoms: _148  and  _149
REMARK   59  A    between atoms: _148  and  _151
REMARK   60  A    between atoms: _154  and  _156
REMARK   61  A    between atoms: _156  and  _157
REMARK   62  A    between atoms: _156  and  _159
REMARK   63  A    between atoms: _159  and  _160
REMARK   64  A    between atoms: _166  and  _167
REMARK   65  A    between atoms: _172  and  _174
REMARK   66  A    between atoms: _174  and  _175
REMARK   67  A    between atoms: _174  and  _177
REMARK   68  A    between atoms: _177  and  _178
REMARK   69  A    between atoms: _180  and  _182
REMARK   70  A    between atoms: _182  and  _183
REMARK   71  A    between atoms: _182  and  _185
REMARK   72  A    between atoms: _185  and  _186
REMARK   73  A    between atoms: _191  and  _192
REMARK   74  A    between atoms: _194  and  _196
REMARK   75  A    between atoms: _196  and  _197
REMARK   76  A    between atoms: _196  and  _199
REMARK   77  A    between atoms: _199  and  _200
REMARK   78  A    between atoms: _205  and  _207
REMARK   79  A    between atoms: _207  and  _208
REMARK   80  A    between atoms: _207  and  _210
REMARK   81  A    between atoms: _210  and  _211
REMARK   82  A    between atoms: _216  and  _218
REMARK   83  A    between atoms: _218  and  _219
REMARK   84  A    between atoms: _218  and  _221
REMARK   85  A    between atoms: _221  and  _222
REMARK   86  A    between atoms: _222  and  _223
REMARK   87  A    between atoms: _225  and  _227
REMARK   88  A    between atoms: _227  and  _228
REMARK   89  A    between atoms: _227  and  _230
REMARK   90  A    between atoms: _230  and  _231
REMARK   91  A    between atoms: _236  and  _237
REMARK   92  A    between atoms: _239  and  _241
REMARK   93  A    between atoms: _241  and  _242
REMARK   94  A    between atoms: _241  and  _244
REMARK   95  A    between atoms: _244  and  _245
REMARK   96  A    between atoms: _248  and  _250
REMARK   97  A    between atoms: _250  and  _251
REMARK   98  A    between atoms: _250  and  _253
REMARK   99  A    between atoms: _253  and  _254
REMARK  100  A    between atoms: _254  and  _484
REMARK  101  A    between atoms: _255  and  _257
REMARK  102  A    between atoms: _257  and  _258
REMARK  103  A    between atoms: _257  and  _260
REMARK  104  A    between atoms: _260  and  _261
REMARK  105  A    between atoms: _264  and  _266
REMARK  106  A    between atoms: _266  and  _267
REMARK  107  A    between atoms: _266  and  _269
REMARK  108  A    between atoms: _269  and  _270
REMARK  109  A    between atoms: _275  and  _276
REMARK  110  A    between atoms: _278  and  _280
REMARK  111  A    between atoms: _280  and  _281
REMARK  112  A    between atoms: _280  and  _283
REMARK  113  A    between atoms: _283  and  _284
REMARK  114  A    between atoms: _289  and  _290
REMARK  115  A    between atoms: _292  and  _294
REMARK  116  A    between atoms: _294  and  _295
REMARK  117  A    between atoms: _294  and  _297
REMARK  118  A    between atoms: _297  and  _298
REMARK  119  A    between atoms: _298  and  _299
REMARK  120  A    between atoms: _302  and  _304
REMARK  121  A    between atoms: _304  and  _305
REMARK  122  A    between atoms: _304  and  _307
REMARK  123  A    between atoms: _307  and  _308
REMARK  124  A    between atoms: _308  and  _309
REMARK  125  A    between atoms: _309  and  _310
REMARK  126  A    between atoms: _310  and  _311
REMARK  127  A    between atoms: _315  and  _317
REMARK  128  A    between atoms: _317  and  _318
REMARK  129  A    between atoms: _317  and  _320
REMARK  130  A    between atoms: _320  and  _321
REMARK  131  A    between atoms: _326  and  _327
REMARK  132  A    between atoms: _329  and  _331
REMARK  133  A    between atoms: _331  and  _332
REMARK  134  A    between atoms: _331  and  _334
REMARK  135  A    between atoms: _334  and  _335
REMARK  136  A    between atoms: _340  and  _342
REMARK  137  A    between atoms: _342  and  _343
REMARK  138  A    between atoms: _342  and  _345
REMARK  139  A    between atoms: _345  and  _346
REMARK  140  A    between atoms: _349  and  _351
REMARK  141  A    between atoms: _351  and  _352
REMARK  142  A    between atoms: _351  and  _354
REMARK  143  A    between atoms: _354  and  _355
REMARK  144  A    between atoms: _360  and  _362
REMARK  145  A    between atoms: _362  and  _363
REMARK  146  A    between atoms: _362  and  _365
REMARK  147  A    between atoms: _365  and  _366
REMARK  148  A    between atoms: _376  and  _378
REMARK  149  A    between atoms: _378  and  _379
REMARK  150  A    between atoms: _378  and  _381
REMARK  151  A    between atoms: _381  and  _382
REMARK  152  A    between atoms: _388  and  _390
REMARK  153  A    between atoms: _390  and  _391
REMARK  154  A    between atoms: _390  and  _393
REMARK  155  A    between atoms: _393  and  _394
REMARK  156  A    between atoms: _397  and  _399
REMARK  157  A    between atoms: _399  and  _400
REMARK  158  A    between atoms: _399  and  _402
REMARK  159  A    between atoms: _402  and  _403
REMARK  160  A    between atoms: _406  and  _408
REMARK  161  A    between atoms: _408  and  _409
REMARK  162  A    between atoms: _408  and  _411
REMARK  163  A    between atoms: _411  and  _412
REMARK  164  A    between atoms: _412  and  _413
REMARK  165  A    between atoms: _413  and  _414
REMARK  166  A    between atoms: _423  and  _425
REMARK  167  A    between atoms: _425  and  _426
REMARK  168  A    between atoms: _425  and  _428
REMARK  169  A    between atoms: _428  and  _429
REMARK  170  A    between atoms: _434  and  _436
REMARK  171  A    between atoms: _436  and  _437
REMARK  172  A    between atoms: _436  and  _439
REMARK  173  A    between atoms: _439  and  _440
REMARK  174  A    between atoms: _440  and  _441
REMARK  175  A    between atoms: _441  and  _442
REMARK  176  A    between atoms: _451  and  _453
REMARK  177  A    between atoms: _453  and  _454
REMARK  178  A    between atoms: _457  and  _459
REMARK  179  A    between atoms: _459  and  _460
REMARK  180  A    between atoms: _462  and  _464
REMARK  181  A    between atoms: _464  and  _465
REMARK  182  A    between atoms: _464  and  _467
REMARK  183  A    between atoms: _467  and  _468
REMARK  184  A    between atoms: _478  and  _480
REMARK  185  A    between atoms: _480  and  _481
REMARK  186  A    between atoms: _480  and  _483
REMARK  187  A    between atoms: _483  and  _484
REMARK  188  A    between atoms: _485  and  _487
REMARK  189  A    between atoms: _487  and  _488
REMARK  190  A    between atoms: _491  and  _493
REMARK  191  A    between atoms: _493  and  _494
REMARK  192  A    between atoms: _493  and  _496
REMARK  193  A    between atoms: _496  and  _497
REMARK  194  A    between atoms: _500  and  _502
REMARK  195  A    between atoms: _502  and  _503
REMARK  196  A    between atoms: _502  and  _505
REMARK  197  A    between atoms: _505  and  _506
REMARK  198  A    between atoms: _511  and  _512
REMARK  199  A    between atoms: _514  and  _516
REMARK  200  A    between atoms: _516  and  _517
REMARK  201  A    between atoms: _516  and  _519
REMARK  202  A    between atoms: _519  and  _520
REMARK  203  A    between atoms: _522  and  _524
REMARK  204  A    between atoms: _524  and  _525
REMARK  205  A    between atoms: _524  and  _527
REMARK  206  A    between atoms: _527  and  _528
REMARK  207  A    between atoms: _534  and  _536
REMARK  208  A    between atoms: _536  and  _537
REMARK  209  A    between atoms: _536  and  _539
REMARK  210  A    between atoms: _539  and  _540
REMARK  211  A    between atoms: _543  and  _545
REMARK  212  A    between atoms: _545  and  _546
REMARK  213  A    between atoms: _545  and  _548
REMARK  214  A    between atoms: _548  and  _549
REMARK  215  A    between atoms: _551  and  _553
REMARK  216  A    between atoms: _553  and  _554
REMARK  217  A    between atoms: _553  and  _556
REMARK  218  A    between atoms: _556  and  _557
REMARK  219  A    between atoms: _562  and  _564
REMARK  220  A    between atoms: _564  and  _565
REMARK  221  A    between atoms: _564  and  _567
REMARK  222  A    between atoms: _567  and  _568
REMARK  223  A    between atoms: _573  and  _575
REMARK  224  A    between atoms: _575  and  _576
REMARK  225  A    between atoms: _575  and  _578
REMARK  226  A    between atoms: _578  and  _579
REMARK  227  A    between atoms: _582  and  _584
REMARK  228  A    between atoms: _584  and  _585
REMARK  229  A    between atoms: _588  and  _590
REMARK  230  A    between atoms: _590  and  _591
REMARK  231  A    between atoms: _590  and  _593
REMARK  232  A    between atoms: _593  and  _594
REMARK  233  A    between atoms: _599  and  _600
REMARK  234  A    between atoms: _602  and  _604
REMARK  235  A    between atoms: _604  and  _605
REMARK  236  A    between atoms: _604  and  _607
REMARK  237  A    between atoms: _607  and  _608
REMARK  238  A    between atoms: _613  and  _614
REMARK  239  A    between atoms: _616  and  _618
REMARK  240  A    between atoms: _618  and  _619
REMARK  241  A    between atoms: _618  and  _621
REMARK  242  A    between atoms: _624  and  _626
REMARK  243  A    between atoms: _626  and  _627
REMARK  244  A    between atoms: _626  and  _629
REMARK  245  A    between atoms: _629  and  _630
REMARK  246  A    between atoms: _635  and  _637
REMARK  247  A    between atoms: _637  and  _638
REMARK  248  A    between atoms: _641  and  _643
REMARK  249  A    between atoms: _643  and  _644
REMARK  250  A    between atoms: _643  and  _646
REMARK  251  A    between atoms: _646  and  _647
REMARK  252  A    between atoms: _647  and  _648
REMARK  253  A    between atoms: _648  and  _649
REMARK  254  A    between atoms: _658  and  _660
REMARK  255  A    between atoms: _660  and  _661
REMARK  256  A    between atoms: _660  and  _663
REMARK  257  A    between atoms: _663  and  _664
REMARK  258  A    between atoms: _667  and  _669
REMARK  259  A    between atoms: _669  and  _670
REMARK  260  A    between atoms: _669  and  _672
REMARK  261  A    between atoms: _672  and  _673
REMARK  262  A    between atoms: _676  and  _678
REMARK  263  A    between atoms: _678  and  _679
REMARK  264  A    between atoms: _678  and  _681
REMARK  265  A    between atoms: _681  and  _682
REMARK  266  A    between atoms: _687  and  _689
REMARK  267  A    between atoms: _689  and  _690
REMARK  268  A    between atoms: _689  and  _692
REMARK  269  A    between atoms: _692  and  _693
REMARK                            x       y       z     vdW  Elec       q    Type
REMARK                         _______ _______ _______ _____ _____    ______ ____
ROOT
ATOM      1  O   HOH     1      36.912  40.491  23.243  0.00  0.00    +0.000 OA
ENDROOT
TORSDOF 0
REMARK  Name = ../refined-set-2016/1b7h/1b7h_pocket.pdb
REMARK  269 active torsions:
REMARK  status: ('A' for Active; 'I' for Inactive)
REMARK    1  A    between atoms: _1  and  _3
REMARK    2  A    between atoms: _3  and  _4
REMARK    3  A    between atoms: _6  and  _8
REMARK    4  A    between atoms: _8  and  _9
REMARK    5  A    between atoms: _8  and  _11
REMARK    6  A    between atoms: _11  and  _12
REMARK    7  A    between atoms: _14  and  _16
REMARK    8  A    between atoms: _16  and  _17
REMARK    9  A    between atoms: _16  and  _19
REMARK   10  A    between atoms: _19  and  _20
REMARK   11  A    between atoms: _20  and  _21
REMARK   12  A    between atoms: _26  and  _28
REMARK   13  A    between atoms: _28  and  _29
REMARK   14  A    between atoms: _28  and  _31
REMARK   15  A    between atoms: _31  and  _32
REMARK   16  A    between atoms: _35  and  _37
REMARK   17  A    between atoms: _37  and  _38
REMARK   18  A    between atoms: _37  and  _40
REMARK   19  A    between atoms: _40  and  _41
REMARK   20  A    between atoms: _41  and  _42
REMARK   21  A    between atoms: _45  and  _47
REMARK   22  A    between atoms: _47  and  _48
REMARK   23  A    between atoms: _50  and  _52
REMARK   24  A    between atoms: _52  and  _53
REMARK   25  A    between atoms: _52  and  _55
REMARK   26  A    between atoms: _59  and  _60
REMARK   27  A    between atoms: _65  and  _67
REMARK   28  A    between atoms: _67  and  _68
REMARK   29  A    between atoms: _67  and  _70
REMARK   30  A    between atoms: _70  and  _71
REMARK   31  A    between atoms: _71  and  _72
REMARK   32  A    between atoms: _75  and  _77
REMARK   33  A    between atoms: _77  and  _78
REMARK   34  A    between atoms: _77  and  _80
REMARK   35  A    between atoms: _80  and  _81
REMARK   36  A    between atoms: _83  and  _85
REMARK   37  A    between atoms: _85  and  _86
REMARK   38  A    between atoms: _85  and  _88
REMARK   39  A    between atoms: _88  and  _89
REMARK   40  A    between atoms: _94  and  _96
REMARK   41  A    between atoms: _96  and  _97
REMARK   42  A    between atoms: _96  and  _99
REMARK   43  A    between atoms: _99  and  _100
REMARK   44  A    between atoms: _100  and  _101
REMARK   45  A    between atoms: _101  and  _102
REMARK   46  A    between atoms: _112  and  _113
REMARK   47  A    between atoms: _118  and  _120
REMARK   48  A    between atoms: _120  and  _121
REMARK   49  A    between atoms: _120  and  _123
REMARK   50  A    between atoms: _123  and  _124
REMARK   51  A    between atoms: _129  and  _130
REMARK   52  A    between atoms: _132  and  _134
REMARK   53  A    between atoms: _134  and  _135
REMARK   54  A    between atoms: _134  and  _137
REMARK   55  A    between atoms: _137  and  _138
REMARK   56  A    between atoms: _143  and  _144
REMARK   57  A    between atoms: _146  and  _148
REMARK   58  A    between atoms: _148  and  _149
REMARK   59  A    between atoms: _148  and  _151
REMARK   60  A    between atoms: _154  and  _156
REMARK   61  A    between atoms: _156  and  _157
REMARK   62  A    between atoms: _156  and  _159
REMARK   63  A    between atoms: _159  and  _160
REMARK   64  A    between atoms: _166  and  _167
REMARK   65  A    between atoms: _172  and  _174
REMARK   66  A    between atoms: _174  and  _175
REMARK   67  A    between atoms: _174  and  _177
REMARK   68  A    between atoms: _177  and  _178
REMARK   69  A    between atoms: _180  and  _182
REMARK   70  A    between atoms: _182  and  _183
REMARK   71  A    between atoms: _182  and  _185
REMARK   72  A    between atoms: _185  and  _186
REMARK   73  A    between atoms: _191  and  _192
REMARK   74  A    between atoms: _194  and  _196
REMARK   75  A    between atoms: _196  and  _197
REMARK   76  A    between atoms: _196  and  _199
REMARK   77  A    between atoms: _199  and  _200
REMARK   78  A    between atoms: _205  and  _207
REMARK   79  A    between atoms: _207  and  _208
REMARK   80  A    between atoms: _207  and  _210
REMARK   81  A    between atoms: _210  and  _211
REMARK   82  A    between atoms: _216  and  _218
REMARK   83  A    between atoms: _218  and  _219
REMARK   84  A    between atoms: _218  and  _221
REMARK   85  A    between atoms: _221  and  _222
REMARK   86  A    between atoms: _222  and  _223
REMARK   87  A    between atoms: _225  and  _227
REMARK   88  A    between atoms: _227  and  _228
REMARK   89  A    between atoms: _227  and  _230
REMARK   90  A    between atoms: _230  and  _231
REMARK   91  A    between atoms: _236  and  _237
REMARK   92  A    between atoms: _239  and  _241
REMARK   93  A    between atoms: _241  and  _242
REMARK   94  A    between atoms: _241  and  _244
REMARK   95  A    between atoms: _244  and  _245
REMARK   96  A    between atoms: _248  and  _250
REMARK   97  A    between atoms: _250  and  _251
REMARK   98  A    between atoms: _250  and  _253
REMARK   99  A    between atoms: _253  and  _254
REMARK  100  A    between atoms: _254  and  _484
REMARK  101  A    between atoms: _255  and  _257
REMARK  102  A    between atoms: _257  and  _258
REMARK  103  A    between atoms: _257  and  _260
REMARK  104  A    between atoms: _260  and  _261
REMARK  105  A    between atoms: _264  and  _266
REMARK  106  A    between atoms: _266  and  _267
REMARK  107  A    between atoms: _266  and  _269
REMARK  108  A    between atoms: _269  and  _270
REMARK  109  A    between atoms: _275  and  _276
REMARK  110  A    between atoms: _278  and  _280
REMARK  111  A    between atoms: _280  and  _281
REMARK  112  A    between atoms: _280  and  _283
REMARK  113  A    between atoms: _283  and  _284
REMARK  114  A    between atoms: _289  and  _290
REMARK  115  A    between atoms: _292  and  _294
REMARK  116  A    between atoms: _294  and  _295
REMARK  117  A    between atoms: _294  and  _297
REMARK  118  A    between atoms: _297  and  _298
REMARK  119  A    between atoms: _298  and  _299
REMARK  120  A    between atoms: _302  and  _304
REMARK  121  A    between atoms: _304  and  _305
REMARK  122  A    between atoms: _304  and  _307
REMARK  123  A    between atoms: _307  and  _308
REMARK  124  A    between atoms: _308  and  _309
REMARK  125  A    between atoms: _309  and  _310
REMARK  126  A    between atoms: _310  and  _311
REMARK  127  A    between atoms: _315  and  _317
REMARK  128  A    between atoms: _317  and  _318
REMARK  129  A    between atoms: _317  and  _320
REMARK  130  A    between atoms: _320  and  _321
REMARK  131  A    between atoms: _326  and  _327
REMARK  132  A    between atoms: _329  and  _331
REMARK  133  A    between atoms: _331  and  _332
REMARK  134  A    between atoms: _331  and  _334
REMARK  135  A    between atoms: _334  and  _335
REMARK  136  A    between atoms: _340  and  _342
REMARK  137  A    between atoms: _342  and  _343
REMARK  138  A    between atoms: _342  and  _345
REMARK  139  A    between atoms: _345  and  _346
REMARK  140  A    between atoms: _349  and  _351
REMARK  141  A    between atoms: _351  and  _352
REMARK  142  A    between atoms: _351  and  _354
REMARK  143  A    between atoms: _354  and  _355
REMARK  144  A    between atoms: _360  and  _362
REMARK  145  A    between atoms: _362  and  _363
REMARK  146  A    between atoms: _362  and  _365
REMARK  147  A    between atoms: _365  and  _366
REMARK  148  A    between atoms: _376  and  _378
REMARK  149  A    between atoms: _378  and  _379
REMARK  150  A    between atoms: _378  and  _381
REMARK  151  A    between atoms: _381  and  _382
REMARK  152  A    between atoms: _388  and  _390
REMARK  153  A    between atoms: _390  and  _391
REMARK  154  A    between atoms: _390  and  _393
REMARK  155  A    between atoms: _393  and  _394
REMARK  156  A    between atoms: _397  and  _399
REMARK  157  A    between atoms: _399  and  _400
REMARK  158  A    between atoms: _399  and  _402
REMARK  159  A    between atoms: _402  and  _403
REMARK  160  A    between atoms: _406  and  _408
REMARK  161  A    between atoms: _408  and  _409
REMARK  162  A    between atoms: _408  and  _411
REMARK  163  A    between atoms: _411  and  _412
REMARK  164  A    between atoms: _412  and  _413
REMARK  165  A    between atoms: _413  and  _414
REMARK  166  A    between atoms: _423  and  _425
REMARK  167  A    between atoms: _425  and  _426
REMARK  168  A    between atoms: _425  and  _428
REMARK  169  A    between atoms: _428  and  _429
REMARK  170  A    between atoms: _434  and  _436
REMARK  171  A    between atoms: _436  and  _437
REMARK  172  A    between atoms: _436  and  _439
REMARK  173  A    between atoms: _439  and  _440
REMARK  174  A    between atoms: _440  and  _441
REMARK  175  A    between atoms: _441  and  _442
REMARK  176  A    between atoms: _451  and  _453
REMARK  177  A    between atoms: _453  and  _454
REMARK  178  A    between atoms: _457  and  _459
REMARK  179  A    between atoms: _459  and  _460
REMARK  180  A    between atoms: _462  and  _464
REMARK  181  A    between atoms: _464  and  _465
REMARK  182  A    between atoms: _464  and  _467
REMARK  183  A    between atoms: _467  and  _468
REMARK  184  A    between atoms: _478  and  _480
REMARK  185  A    between atoms: _480  and  _481
REMARK  186  A    between atoms: _480  and  _483
REMARK  187  A    between atoms: _483  and  _484
REMARK  188  A    between atoms: _485  and  _487
REMARK  189  A    between atoms: _487  and  _488
REMARK  190  A    between atoms: _491  and  _493
REMARK  191  A    between atoms: _493  and  _494
REMARK  192  A    between atoms: _493  and  _496
REMARK  193  A    between atoms: _496  and  _497
REMARK  194  A    between atoms: _500  and  _502
REMARK  195  A    between atoms: _502  and  _503
REMARK  196  A    between atoms: _502  and  _505
REMARK  197  A    between atoms: _505  and  _506
REMARK  198  A    between atoms: _511  and  _512
REMARK  199  A    between atoms: _514  and  _516
REMARK  200  A    between atoms: _516  and  _517
REMARK  201  A    between atoms: _516  and  _519
REMARK  202  A    between atoms: _519  and  _520
REMARK  203  A    between atoms: _522  and  _524
REMARK  204  A    between atoms: _524  and  _525
REMARK  205  A    between atoms: _524  and  _527
REMARK  206  A    between atoms: _527  and  _528
REMARK  207  A    between atoms: _534  and  _536
REMARK  208  A    between atoms: _536  and  _537
REMARK  209  A    between atoms: _536  and  _539
REMARK  210  A    between atoms: _539  and  _540
REMARK  211  A    between atoms: _543  and  _545
REMARK  212  A    between atoms: _545  and  _546
REMARK  213  A    between atoms: _545  and  _548
REMARK  214  A    between atoms: _548  and  _549
REMARK  215  A    between atoms: _551  and  _553
REMARK  216  A    between atoms: _553  and  _554
REMARK  217  A    between atoms: _553  and  _556
REMARK  218  A    between atoms: _556  and  _557
REMARK  219  A    between atoms: _562  and  _564
REMARK  220  A    between atoms: _564  and  _565
REMARK  221  A    between atoms: _564  and  _567
REMARK  222  A    between atoms: _567  and  _568
REMARK  223  A    between atoms: _573  and  _575
REMARK  224  A    between atoms: _575  and  _576
REMARK  225  A    between atoms: _575  and  _578
REMARK  226  A    between atoms: _578  and  _579
REMARK  227  A    between atoms: _582  and  _584
REMARK  228  A    between atoms: _584  and  _585
REMARK  229  A    between atoms: _588  and  _590
REMARK  230  A    between atoms: _590  and  _591
REMARK  231  A    between atoms: _590  and  _593
REMARK  232  A    between atoms: _593  and  _594
REMARK  233  A    between atoms: _599  and  _600
REMARK  234  A    between atoms: _602  and  _604
REMARK  235  A    between atoms: _604  and  _605
REMARK  236  A    between atoms: _604  and  _607
REMARK  237  A    between atoms: _607  and  _608
REMARK  238  A    between atoms: _613  and  _614
REMARK  239  A    between atoms: _616  and  _618
REMARK  240  A    between atoms: _618  and  _619
REMARK  241  A    between atoms: _618  and  _621
REMARK  242  A    between atoms: _624  and  _626
REMARK  243  A    between atoms: _626  and  _627
REMARK  244  A    between atoms: _626  and  _629
REMARK  245  A    between atoms: _629  and  _630
REMARK  246  A    between atoms: _635  and  _637
REMARK  247  A    between atoms: _637  and  _638
REMARK  248  A    between atoms: _641  and  _643
REMARK  249  A    between atoms: _643  and  _644
REMARK  250  A    between atoms: _643  and  _646
REMARK  251  A    between atoms: _646  and  _647
REMARK  252  A    between atoms: _647  and  _648
REMARK  253  A    between atoms: _648  and  _649
REMARK  254  A    between atoms: _658  and  _660
REMARK  255  A    between atoms: _660  and  _661
REMARK  256  A    between atoms: _660  and  _663
REMARK  257  A    between atoms: _663  and  _664
REMARK  258  A    between atoms: _667  and  _669
REMARK  259  A    between atoms: _669  and  _670
REMARK  260  A    between atoms: _669  and  _672
REMARK  261  A    between atoms: _672  and  _673
REMARK  262  A    between atoms: _676  and  _678
REMARK  263  A    between atoms: _678  and  _679
REMARK  264  A    between atoms: _678  and  _681
REMARK  265  A    between atoms: _681  and  _682
REMARK  266  A    between atoms: _687  and  _689
REMARK  267  A    between atoms: _689  and  _690
REMARK  268  A    between atoms: _689  and  _692
REMARK  269  A    between atoms: _692  and  _693
REMARK                            x       y       z     vdW  Elec       q    Type
REMARK                         _______ _______ _______ _____ _____    ______ ____
ROOT
ATOM      1  O   HOH     1      33.303  38.737  15.812  0.00  0.00    +0.000 OA
ENDROOT
TORSDOF 0
REMARK  Name = ../refined-set-2016/1b7h/1b7h_pocket.pdb
REMARK  269 active torsions:
REMARK  status: ('A' for Active; 'I' for Inactive)
REMARK    1  A    between atoms: _1  and  _3
REMARK    2  A    between atoms: _3  and  _4
REMARK    3  A    between atoms: _6  and  _8
REMARK    4  A    between atoms: _8  and  _9
REMARK    5  A    between atoms: _8  and  _11
REMARK    6  A    between atoms: _11  and  _12
REMARK    7  A    between atoms: _14  and  _16
REMARK    8  A    between atoms: _16  and  _17
REMARK    9  A    between atoms: _16  and  _19
REMARK   10  A    between atoms: _19  and  _20
REMARK   11  A    between atoms: _20  and  _21
REMARK   12  A    between atoms: _26  and  _28
REMARK   13  A    between atoms: _28  and  _29
REMARK   14  A    between atoms: _28  and  _31
REMARK   15  A    between atoms: _31  and  _32
REMARK   16  A    between atoms: _35  and  _37
REMARK   17  A    between atoms: _37  and  _38
REMARK   18  A    between atoms: _37  and  _40
REMARK   19  A    between atoms: _40  and  _41
REMARK   20  A    between atoms: _41  and  _42
REMARK   21  A    between atoms: _45  and  _47
REMARK   22  A    between atoms: _47  and  _48
REMARK   23  A    between atoms: _50  and  _52
REMARK   24  A    between atoms: _52  and  _53
REMARK   25  A    between atoms: _52  and  _55
REMARK   26  A    between atoms: _59  and  _60
REMARK   27  A    between atoms: _65  and  _67
REMARK   28  A    between atoms: _67  and  _68
REMARK   29  A    between atoms: _67  and  _70
REMARK   30  A    between atoms: _70  and  _71
REMARK   31  A    between atoms: _71  and  _72
REMARK   32  A    between atoms: _75  and  _77
REMARK   33  A    between atoms: _77  and  _78
REMARK   34  A    between atoms: _77  and  _80
REMARK   35  A    between atoms: _80  and  _81
REMARK   36  A    between atoms: _83  and  _85
REMARK   37  A    between atoms: _85  and  _86
REMARK   38  A    between atoms: _85  and  _88
REMARK   39  A    between atoms: _88  and  _89
REMARK   40  A    between atoms: _94  and  _96
REMARK   41  A    between atoms: _96  and  _97
REMARK   42  A    between atoms: _96  and  _99
REMARK   43  A    between atoms: _99  and  _100
REMARK   44  A    between atoms: _100  and  _101
REMARK   45  A    between atoms: _101  and  _102
REMARK   46  A    between atoms: _112  and  _113
REMARK   47  A    between atoms: _118  and  _120
REMARK   48  A    between atoms: _120  and  _121
REMARK   49  A    between atoms: _120  and  _123
REMARK   50  A    between atoms: _123  and  _124
REMARK   51  A    between atoms: _129  and  _130
REMARK   52  A    between atoms: _132  and  _134
REMARK   53  A    between atoms: _134  and  _135
REMARK   54  A    between atoms: _134  and  _137
REMARK   55  A    between atoms: _137  and  _138
REMARK   56  A    between atoms: _143  and  _144
REMARK   57  A    between atoms: _146  and  _148
REMARK   58  A    between atoms: _148  and  _149
REMARK   59  A    between atoms: _148  and  _151
REMARK   60  A    between atoms: _154  and  _156
REMARK   61  A    between atoms: _156  and  _157
REMARK   62  A    between atoms: _156  and  _159
REMARK   63  A    between atoms: _159  and  _160
REMARK   64  A    between atoms: _166  and  _167
REMARK   65  A    between atoms: _172  and  _174
REMARK   66  A    between atoms: _174  and  _175
REMARK   67  A    between atoms: _174  and  _177
REMARK   68  A    between atoms: _177  and  _178
REMARK   69  A    between atoms: _180  and  _182
REMARK   70  A    between atoms: _182  and  _183
REMARK   71  A    between atoms: _182  and  _185
REMARK   72  A    between atoms: _185  and  _186
REMARK   73  A    between atoms: _191  and  _192
REMARK   74  A    between atoms: _194  and  _196
REMARK   75  A    between atoms: _196  and  _197
REMARK   76  A    between atoms: _196  and  _199
REMARK   77  A    between atoms: _199  and  _200
REMARK   78  A    between atoms: _205  and  _207
REMARK   79  A    between atoms: _207  and  _208
REMARK   80  A    between atoms: _207  and  _210
REMARK   81  A    between atoms: _210  and  _211
REMARK   82  A    between atoms: _216  and  _218
REMARK   83  A    between atoms: _218  and  _219
REMARK   84  A    between atoms: _218  and  _221
REMARK   85  A    between atoms: _221  and  _222
REMARK   86  A    between atoms: _222  and  _223
REMARK   87  A    between atoms: _225  and  _227
REMARK   88  A    between atoms: _227  and  _228
REMARK   89  A    between atoms: _227  and  _230
REMARK   90  A    between atoms: _230  and  _231
REMARK   91  A    between atoms: _236  and  _237
REMARK   92  A    between atoms: _239  and  _241
REMARK   93  A    between atoms: _241  and  _242
REMARK   94  A    between atoms: _241  and  _244
REMARK   95  A    between atoms: _244  and  _245
REMARK   96  A    between atoms: _248  and  _250
REMARK   97  A    between atoms: _250  and  _251
REMARK   98  A    between atoms: _250  and  _253
REMARK   99  A    between atoms: _253  and  _254
REMARK  100  A    between atoms: _254  and  _484
REMARK  101  A    between atoms: _255  and  _257
REMARK  102  A    between atoms: _257  and  _258
REMARK  103  A    between atoms: _257  and  _260
REMARK  104  A    between atoms: _260  and  _261
REMARK  105  A    between atoms: _264  and  _266
REMARK  106  A    between atoms: _266  and  _267
REMARK  107  A    between atoms: _266  and  _269
REMARK  108  A    between atoms: _269  and  _270
REMARK  109  A    between atoms: _275  and  _276
REMARK  110  A    between atoms: _278  and  _280
REMARK  111  A    between atoms: _280  and  _281
REMARK  112  A    between atoms: _280  and  _283
REMARK  113  A    between atoms: _283  and  _284
REMARK  114  A    between atoms: _289  and  _290
REMARK  115  A    between atoms: _292  and  _294
REMARK  116  A    between atoms: _294  and  _295
REMARK  117  A    between atoms: _294  and  _297
REMARK  118  A    between atoms: _297  and  _298
REMARK  119  A    between atoms: _298  and  _299
REMARK  120  A    between atoms: _302  and  _304
REMARK  121  A    between atoms: _304  and  _305
REMARK  122  A    between atoms: _304  and  _307
REMARK  123  A    between atoms: _307  and  _308
REMARK  124  A    between atoms: _308  and  _309
REMARK  125  A    between atoms: _309  and  _310
REMARK  126  A    between atoms: _310  and  _311
REMARK  127  A    between atoms: _315  and  _317
REMARK  128  A    between atoms: _317  and  _318
REMARK  129  A    between atoms: _317  and  _320
REMARK  130  A    between atoms: _320  and  _321
REMARK  131  A    between atoms: _326  and  _327
REMARK  132  A    between atoms: _329  and  _331
REMARK  133  A    between atoms: _331  and  _332
REMARK  134  A    between atoms: _331  and  _334
REMARK  135  A    between atoms: _334  and  _335
REMARK  136  A    between atoms: _340  and  _342
REMARK  137  A    between atoms: _342  and  _343
REMARK  138  A    between atoms: _342  and  _345
REMARK  139  A    between atoms: _345  and  _346
REMARK  140  A    between atoms: _349  and  _351
REMARK  141  A    between atoms: _351  and  _352
REMARK  142  A    between atoms: _351  and  _354
REMARK  143  A    between atoms: _354  and  _355
REMARK  144  A    between atoms: _360  and  _362
REMARK  145  A    between atoms: _362  and  _363
REMARK  146  A    between atoms: _362  and  _365
REMARK  147  A    between atoms: _365  and  _366
REMARK  148  A    between atoms: _376  and  _378
REMARK  149  A    between atoms: _378  and  _379
REMARK  150  A    between atoms: _378  and  _381
REMARK  151  A    between atoms: _381  and  _382
REMARK  152  A    between atoms: _388  and  _390
REMARK  153  A    between atoms: _390  and  _391
REMARK  154  A    between atoms: _390  and  _393
REMARK  155  A    between atoms: _393  and  _394
REMARK  156  A    between atoms: _397  and  _399
REMARK  157  A    between atoms: _399  and  _400
REMARK  158  A    between atoms: _399  and  _402
REMARK  159  A    between atoms: _402  and  _403
REMARK  160  A    between atoms: _406  and  _408
REMARK  161  A    between atoms: _408  and  _409
REMARK  162  A    between atoms: _408  and  _411
REMARK  163  A    between atoms: _411  and  _412
REMARK  164  A    between atoms: _412  and  _413
REMARK  165  A    between atoms: _413  and  _414
REMARK  166  A    between atoms: _423  and  _425
REMARK  167  A    between atoms: _425  and  _426
REMARK  168  A    between atoms: _425  and  _428
REMARK  169  A    between atoms: _428  and  _429
REMARK  170  A    between atoms: _434  and  _436
REMARK  171  A    between atoms: _436  and  _437
REMARK  172  A    between atoms: _436  and  _439
REMARK  173  A    between atoms: _439  and  _440
REMARK  174  A    between atoms: _440  and  _441
REMARK  175  A    between atoms: _441  and  _442
REMARK  176  A    between atoms: _451  and  _453
REMARK  177  A    between atoms: _453  and  _454
REMARK  178  A    between atoms: _457  and  _459
REMARK  179  A    between atoms: _459  and  _460
REMARK  180  A    between atoms: _462  and  _464
REMARK  181  A    between atoms: _464  and  _465
REMARK  182  A    between atoms: _464  and  _467
REMARK  183  A    between atoms: _467  and  _468
REMARK  184  A    between atoms: _478  and  _480
REMARK  185  A    between atoms: _480  and  _481
REMARK  186  A    between atoms: _480  and  _483
REMARK  187  A    between atoms: _483  and  _484
REMARK  188  A    between atoms: _485  and  _487
REMARK  189  A    between atoms: _487  and  _488
REMARK  190  A    between atoms: _491  and  _493
REMARK  191  A    between atoms: _493  and  _494
REMARK  192  A    between atoms: _493  and  _496
REMARK  193  A    between atoms: _496  and  _497
REMARK  194  A    between atoms: _500  and  _502
REMARK  195  A    between atoms: _502  and  _503
REMARK  196  A    between atoms: _502  and  _505
REMARK  197  A    between atoms: _505  and  _506
REMARK  198  A    between atoms: _511  and  _512
REMARK  199  A    between atoms: _514  and  _516
REMARK  200  A    between atoms: _516  and  _517
REMARK  201  A    between atoms: _516  and  _519
REMARK  202  A    between atoms: _519  and  _520
REMARK  203  A    between atoms: _522  and  _524
REMARK  204  A    between atoms: _524  and  _525
REMARK  205  A    between atoms: _524  and  _527
REMARK  206  A    between atoms: _527  and  _528
REMARK  207  A    between atoms: _534  and  _536
REMARK  208  A    between atoms: _536  and  _537
REMARK  209  A    between atoms: _536  and  _539
REMARK  210  A    between atoms: _539  and  _540
REMARK  211  A    between atoms: _543  and  _545
REMARK  212  A    between atoms: _545  and  _546
REMARK  213  A    between atoms: _545  and  _548
REMARK  214  A    between atoms: _548  and  _549
REMARK  215  A    between atoms: _551  and  _553
REMARK  216  A    between atoms: _553  and  _554
REMARK  217  A    between atoms: _553  and  _556
REMARK  218  A    between atoms: _556  and  _557
REMARK  219  A    between atoms: _562  and  _564
REMARK  220  A    between atoms: _564  and  _565
REMARK  221  A    between atoms: _564  and  _567
REMARK  222  A    between atoms: _567  and  _568
REMARK  223  A    between atoms: _573  and  _575
REMARK  224  A    between atoms: _575  and  _576
REMARK  225  A    between atoms: _575  and  _578
REMARK  226  A    between atoms: _578  and  _579
REMARK  227  A    between atoms: _582  and  _584
REMARK  228  A    between atoms: _584  and  _585
REMARK  229  A    between atoms: _588  and  _590
REMARK  230  A    between atoms: _590  and  _591
REMARK  231  A    between atoms: _590  and  _593
REMARK  232  A    between atoms: _593  and  _594
REMARK  233  A    between atoms: _599  and  _600
REMARK  234  A    between atoms: _602  and  _604
REMARK  235  A    between atoms: _604  and  _605
REMARK  236  A    between atoms: _604  and  _607
REMARK  237  A    between atoms: _607  and  _608
REMARK  238  A    between atoms: _613  and  _614
REMARK  239  A    between atoms: _616  and  _618
REMARK  240  A    between atoms: _618  and  _619
REMARK  241  A    between atoms: _618  and  _621
REMARK  242  A    between atoms: _624  and  _626
REMARK  243  A    between atoms: _626  and  _627
REMARK  244  A    between atoms: _626  and  _629
REMARK  245  A    between atoms: _629  and  _630
REMARK  246  A    between atoms: _635  and  _637
REMARK  247  A    between atoms: _637  and  _638
REMARK  248  A    between atoms: _641  and  _643
REMARK  249  A    between atoms: _643  and  _644
REMARK  250  A    between atoms: _643  and  _646
REMARK  251  A    between atoms: _646  and  _647
REMARK  252  A    between atoms: _647  and  _648
REMARK  253  A    between atoms: _648  and  _649
REMARK  254  A    between atoms: _658  and  _660
REMARK  255  A    between atoms: _660  and  _661
REMARK  256  A    between atoms: _660  and  _663
REMARK  257  A    between atoms: _663  and  _664
REMARK  258  A    between atoms: _667  and  _669
REMARK  259  A    between atoms: _669  and  _670
REMARK  260  A    between atoms: _669  and  _672
REMARK  261  A    between atoms: _672  and  _673
REMARK  262  A    between atoms: _676  and  _678
REMARK  263  A    between atoms: _678  and  _679
REMARK  264  A    between atoms: _678  and  _681
REMARK  265  A    between atoms: _681  and  _682
REMARK  266  A    between atoms: _687  and  _689
REMARK  267  A    between atoms: _689  and  _690
REMARK  268  A    between atoms: _689  and  _692
REMARK  269  A    between atoms: _692  and  _693
REMARK                            x       y       z     vdW  Elec       q    Type
REMARK                         _______ _______ _______ _____ _____    ______ ____
ROOT
ATOM      1  O   HOH     1      28.030  34.691  26.469  0.00  0.00    +0.000 OA
ENDROOT
TORSDOF 0
REMARK  Name = ../refined-set-2016/1b7h/1b7h_pocket.pdb
REMARK  269 active torsions:
REMARK  status: ('A' for Active; 'I' for Inactive)
REMARK    1  A    between atoms: _1  and  _3
REMARK    2  A    between atoms: _3  and  _4
REMARK    3  A    between atoms: _6  and  _8
REMARK    4  A    between atoms: _8  and  _9
REMARK    5  A    between atoms: _8  and  _11
REMARK    6  A    between atoms: _11  and  _12
REMARK    7  A    between atoms: _14  and  _16
REMARK    8  A    between atoms: _16  and  _17
REMARK    9  A    between atoms: _16  and  _19
REMARK   10  A    between atoms: _19  and  _20
REMARK   11  A    between atoms: _20  and  _21
REMARK   12  A    between atoms: _26  and  _28
REMARK   13  A    between atoms: _28  and  _29
REMARK   14  A    between atoms: _28  and  _31
REMARK   15  A    between atoms: _31  and  _32
REMARK   16  A    between atoms: _35  and  _37
REMARK   17  A    between atoms: _37  and  _38
REMARK   18  A    between atoms: _37  and  _40
REMARK   19  A    between atoms: _40  and  _41
REMARK   20  A    between atoms: _41  and  _42
REMARK   21  A    between atoms: _45  and  _47
REMARK   22  A    between atoms: _47  and  _48
REMARK   23  A    between atoms: _50  and  _52
REMARK   24  A    between atoms: _52  and  _53
REMARK   25  A    between atoms: _52  and  _55
REMARK   26  A    between atoms: _59  and  _60
REMARK   27  A    between atoms: _65  and  _67
REMARK   28  A    between atoms: _67  and  _68
REMARK   29  A    between atoms: _67  and  _70
REMARK   30  A    between atoms: _70  and  _71
REMARK   31  A    between atoms: _71  and  _72
REMARK   32  A    between atoms: _75  and  _77
REMARK   33  A    between atoms: _77  and  _78
REMARK   34  A    between atoms: _77  and  _80
REMARK   35  A    between atoms: _80  and  _81
REMARK   36  A    between atoms: _83  and  _85
REMARK   37  A    between atoms: _85  and  _86
REMARK   38  A    between atoms: _85  and  _88
REMARK   39  A    between atoms: _88  and  _89
REMARK   40  A    between atoms: _94  and  _96
REMARK   41  A    between atoms: _96  and  _97
REMARK   42  A    between atoms: _96  and  _99
REMARK   43  A    between atoms: _99  and  _100
REMARK   44  A    between atoms: _100  and  _101
REMARK   45  A    between atoms: _101  and  _102
REMARK   46  A    between atoms: _112  and  _113
REMARK   47  A    between atoms: _118  and  _120
REMARK   48  A    between atoms: _120  and  _121
REMARK   49  A    between atoms: _120  and  _123
REMARK   50  A    between atoms: _123  and  _124
REMARK   51  A    between atoms: _129  and  _130
REMARK   52  A    between atoms: _132  and  _134
REMARK   53  A    between atoms: _134  and  _135
REMARK   54  A    between atoms: _134  and  _137
REMARK   55  A    between atoms: _137  and  _138
REMARK   56  A    between atoms: _143  and  _144
REMARK   57  A    between atoms: _146  and  _148
REMARK   58  A    between atoms: _148  and  _149
REMARK   59  A    between atoms: _148  and  _151
REMARK   60  A    between atoms: _154  and  _156
REMARK   61  A    between atoms: _156  and  _157
REMARK   62  A    between atoms: _156  and  _159
REMARK   63  A    between atoms: _159  and  _160
REMARK   64  A    between atoms: _166  and  _167
REMARK   65  A    between atoms: _172  and  _174
REMARK   66  A    between atoms: _174  and  _175
REMARK   67  A    between atoms: _174  and  _177
REMARK   68  A    between atoms: _177  and  _178
REMARK   69  A    between atoms: _180  and  _182
REMARK   70  A    between atoms: _182  and  _183
REMARK   71  A    between atoms: _182  and  _185
REMARK   72  A    between atoms: _185  and  _186
REMARK   73  A    between atoms: _191  and  _192
REMARK   74  A    between atoms: _194  and  _196
REMARK   75  A    between atoms: _196  and  _197
REMARK   76  A    between atoms: _196  and  _199
REMARK   77  A    between atoms: _199  and  _200
REMARK   78  A    between atoms: _205  and  _207
REMARK   79  A    between atoms: _207  and  _208
REMARK   80  A    between atoms: _207  and  _210
REMARK   81  A    between atoms: _210  and  _211
REMARK   82  A    between atoms: _216  and  _218
REMARK   83  A    between atoms: _218  and  _219
REMARK   84  A    between atoms: _218  and  _221
REMARK   85  A    between atoms: _221  and  _222
REMARK   86  A    between atoms: _222  and  _223
REMARK   87  A    between atoms: _225  and  _227
REMARK   88  A    between atoms: _227  and  _228
REMARK   89  A    between atoms: _227  and  _230
REMARK   90  A    between atoms: _230  and  _231
REMARK   91  A    between atoms: _236  and  _237
REMARK   92  A    between atoms: _239  and  _241
REMARK   93  A    between atoms: _241  and  _242
REMARK   94  A    between atoms: _241  and  _244
REMARK   95  A    between atoms: _244  and  _245
REMARK   96  A    between atoms: _248  and  _250
REMARK   97  A    between atoms: _250  and  _251
REMARK   98  A    between atoms: _250  and  _253
REMARK   99  A    between atoms: _253  and  _254
REMARK  100  A    between atoms: _254  and  _484
REMARK  101  A    between atoms: _255  and  _257
REMARK  102  A    between atoms: _257  and  _258
REMARK  103  A    between atoms: _257  and  _260
REMARK  104  A    between atoms: _260  and  _261
REMARK  105  A    between atoms: _264  and  _266
REMARK  106  A    between atoms: _266  and  _267
REMARK  107  A    between atoms: _266  and  _269
REMARK  108  A    between atoms: _269  and  _270
REMARK  109  A    between atoms: _275  and  _276
REMARK  110  A    between atoms: _278  and  _280
REMARK  111  A    between atoms: _280  and  _281
REMARK  112  A    between atoms: _280  and  _283
REMARK  113  A    between atoms: _283  and  _284
REMARK  114  A    between atoms: _289  and  _290
REMARK  115  A    between atoms: _292  and  _294
REMARK  116  A    between atoms: _294  and  _295
REMARK  117  A    between atoms: _294  and  _297
REMARK  118  A    between atoms: _297  and  _298
REMARK  119  A    between atoms: _298  and  _299
REMARK  120  A    between atoms: _302  and  _304
REMARK  121  A    between atoms: _304  and  _305
REMARK  122  A    between atoms: _304  and  _307
REMARK  123  A    between atoms: _307  and  _308
REMARK  124  A    between atoms: _308  and  _309
REMARK  125  A    between atoms: _309  and  _310
REMARK  126  A    between atoms: _310  and  _311
REMARK  127  A    between atoms: _315  and  _317
REMARK  128  A    between atoms: _317  and  _318
REMARK  129  A    between atoms: _317  and  _320
REMARK  130  A    between atoms: _320  and  _321
REMARK  131  A    between atoms: _326  and  _327
REMARK  132  A    between atoms: _329  and  _331
REMARK  133  A    between atoms: _331  and  _332
REMARK  134  A    between atoms: _331  and  _334
REMARK  135  A    between atoms: _334  and  _335
REMARK  136  A    between atoms: _340  and  _342
REMARK  137  A    between atoms: _342  and  _343
REMARK  138  A    between atoms: _342  and  _345
REMARK  139  A    between atoms: _345  and  _346
REMARK  140  A    between atoms: _349  and  _351
REMARK  141  A    between atoms: _351  and  _352
REMARK  142  A    between atoms: _351  and  _354
REMARK  143  A    between atoms: _354  and  _355
REMARK  144  A    between atoms: _360  and  _362
REMARK  145  A    between atoms: _362  and  _363
REMARK  146  A    between atoms: _362  and  _365
REMARK  147  A    between atoms: _365  and  _366
REMARK  148  A    between atoms: _376  and  _378
REMARK  149  A    between atoms: _378  and  _379
REMARK  150  A    between atoms: _378  and  _381
REMARK  151  A    between atoms: _381  and  _382
REMARK  152  A    between atoms: _388  and  _390
REMARK  153  A    between atoms: _390  and  _391
REMARK  154  A    between atoms: _390  and  _393
REMARK  155  A    between atoms: _393  and  _394
REMARK  156  A    between atoms: _397  and  _399
REMARK  157  A    between atoms: _399  and  _400
REMARK  158  A    between atoms: _399  and  _402
REMARK  159  A    between atoms: _402  and  _403
REMARK  160  A    between atoms: _406  and  _408
REMARK  161  A    between atoms: _408  and  _409
REMARK  162  A    between atoms: _408  and  _411
REMARK  163  A    between atoms: _411  and  _412
REMARK  164  A    between atoms: _412  and  _413
REMARK  165  A    between atoms: _413  and  _414
REMARK  166  A    between atoms: _423  and  _425
REMARK  167  A    between atoms: _425  and  _426
REMARK  168  A    between atoms: _425  and  _428
REMARK  169  A    between atoms: _428  and  _429
REMARK  170  A    between atoms: _434  and  _436
REMARK  171  A    between atoms: _436  and  _437
REMARK  172  A    between atoms: _436  and  _439
REMARK  173  A    between atoms: _439  and  _440
REMARK  174  A    between atoms: _440  and  _441
REMARK  175  A    between atoms: _441  and  _442
REMARK  176  A    between atoms: _451  and  _453
REMARK  177  A    between atoms: _453  and  _454
REMARK  178  A    between atoms: _457  and  _459
REMARK  179  A    between atoms: _459  and  _460
REMARK  180  A    between atoms: _462  and  _464
REMARK  181  A    between atoms: _464  and  _465
REMARK  182  A    between atoms: _464  and  _467
REMARK  183  A    between atoms: _467  and  _468
REMARK  184  A    between atoms: _478  and  _480
REMARK  185  A    between atoms: _480  and  _481
REMARK  186  A    between atoms: _480  and  _483
REMARK  187  A    between atoms: _483  and  _484
REMARK  188  A    between atoms: _485  and  _487
REMARK  189  A    between atoms: _487  and  _488
REMARK  190  A    between atoms: _491  and  _493
REMARK  191  A    between atoms: _493  and  _494
REMARK  192  A    between atoms: _493  and  _496
REMARK  193  A    between atoms: _496  and  _497
REMARK  194  A    between atoms: _500  and  _502
REMARK  195  A    between atoms: _502  and  _503
REMARK  196  A    between atoms: _502  and  _505
REMARK  197  A    between atoms: _505  and  _506
REMARK  198  A    between atoms: _511  and  _512
REMARK  199  A    between atoms: _514  and  _516
REMARK  200  A    between atoms: _516  and  _517
REMARK  201  A    between atoms: _516  and  _519
REMARK  202  A    between atoms: _519  and  _520
REMARK  203  A    between atoms: _522  and  _524
REMARK  204  A    between atoms: _524  and  _525
REMARK  205  A    between atoms: _524  and  _527
REMARK  206  A    between atoms: _527  and  _528
REMARK  207  A    between atoms: _534  and  _536
REMARK  208  A    between atoms: _536  and  _537
REMARK  209  A    between atoms: _536  and  _539
REMARK  210  A    between atoms: _539  and  _540
REMARK  211  A    between atoms: _543  and  _545
REMARK  212  A    between atoms: _545  and  _546
REMARK  213  A    between atoms: _545  and  _548
REMARK  214  A    between atoms: _548  and  _549
REMARK  215  A    between atoms: _551  and  _553
REMARK  216  A    between atoms: _553  and  _554
REMARK  217  A    between atoms: _553  and  _556
REMARK  218  A    between atoms: _556  and  _557
REMARK  219  A    between atoms: _562  and  _564
REMARK  220  A    between atoms: _564  and  _565
REMARK  221  A    between atoms: _564  and  _567
REMARK  222  A    between atoms: _567  and  _568
REMARK  223  A    between atoms: _573  and  _575
REMARK  224  A    between atoms: _575  and  _576
REMARK  225  A    between atoms: _575  and  _578
REMARK  226  A    between atoms: _578  and  _579
REMARK  227  A    between atoms: _582  and  _584
REMARK  228  A    between atoms: _584  and  _585
REMARK  229  A    between atoms: _588  and  _590
REMARK  230  A    between atoms: _590  and  _591
REMARK  231  A    between atoms: _590  and  _593
REMARK  232  A    between atoms: _593  and  _594
REMARK  233  A    between atoms: _599  and  _600
REMARK  234  A    between atoms: _602  and  _604
REMARK  235  A    between atoms: _604  and  _605
REMARK  236  A    between atoms: _604  and  _607
REMARK  237  A    between atoms: _607  and  _608
REMARK  238  A    between atoms: _613  and  _614
REMARK  239  A    between atoms: _616  and  _618
REMARK  240  A    between atoms: _618  and  _619
REMARK  241  A    between atoms: _618  and  _621
REMARK  242  A    between atoms: _624  and  _626
REMARK  243  A    between atoms: _626  and  _627
REMARK  244  A    between atoms: _626  and  _629
REMARK  245  A    between atoms: _629  and  _630
REMARK  246  A    between atoms: _635  and  _637
REMARK  247  A    between atoms: _637  and  _638
REMARK  248  A    between atoms: _641  and  _643
REMARK  249  A    between atoms: _643  and  _644
REMARK  250  A    between atoms: _643  and  _646
REMARK  251  A    between atoms: _646  and  _647
REMARK  252  A    between atoms: _647  and  _648
REMARK  253  A    between atoms: _648  and  _649
REMARK  254  A    between atoms: _658  and  _660
REMARK  255  A    between atoms: _660  and  _661
REMARK  256  A    between atoms: _660  and  _663
REMARK  257  A    between atoms: _663  and  _664
REMARK  258  A    between atoms: _667  and  _669
REMARK  259  A    between atoms: _669  and  _670
REMARK  260  A    between atoms: _669  and  _672
REMARK  261  A    between atoms: _672  and  _673
REMARK  262  A    between atoms: _676  and  _678
REMARK  263  A    between atoms: _678  and  _679
REMARK  264  A    between atoms: _678  and  _681
REMARK  265  A    between atoms: _681  and  _682
REMARK  266  A    between atoms: _687  and  _689
REMARK  267  A    between atoms: _689  and  _690
REMARK  268  A    between atoms: _689  and  _692
REMARK  269  A    between atoms: _692  and  _693
REMARK                            x       y       z     vdW  Elec       q    Type
REMARK                         _______ _______ _______ _____ _____    ______ ____
ROOT
ATOM      1  O   HOH     1      29.316  36.542  27.611  0.00  0.00    +0.000 OA
ENDROOT
TORSDOF 0
REMARK  Name = ../refined-set-2016/1b7h/1b7h_pocket.pdb
REMARK  269 active torsions:
REMARK  status: ('A' for Active; 'I' for Inactive)
REMARK    1  A    between atoms: _1  and  _3
REMARK    2  A    between atoms: _3  and  _4
REMARK    3  A    between atoms: _6  and  _8
REMARK    4  A    between atoms: _8  and  _9
REMARK    5  A    between atoms: _8  and  _11
REMARK    6  A    between atoms: _11  and  _12
REMARK    7  A    between atoms: _14  and  _16
REMARK    8  A    between atoms: _16  and  _17
REMARK    9  A    between atoms: _16  and  _19
REMARK   10  A    between atoms: _19  and  _20
REMARK   11  A    between atoms: _20  and  _21
REMARK   12  A    between atoms: _26  and  _28
REMARK   13  A    between atoms: _28  and  _29
REMARK   14  A    between atoms: _28  and  _31
REMARK   15  A    between atoms: _31  and  _32
REMARK   16  A    between atoms: _35  and  _37
REMARK   17  A    between atoms: _37  and  _38
REMARK   18  A    between atoms: _37  and  _40
REMARK   19  A    between atoms: _40  and  _41
REMARK   20  A    between atoms: _41  and  _42
REMARK   21  A    between atoms: _45  and  _47
REMARK   22  A    between atoms: _47  and  _48
REMARK   23  A    between atoms: _50  and  _52
REMARK   24  A    between atoms: _52  and  _53
REMARK   25  A    between atoms: _52  and  _55
REMARK   26  A    between atoms: _59  and  _60
REMARK   27  A    between atoms: _65  and  _67
REMARK   28  A    between atoms: _67  and  _68
REMARK   29  A    between atoms: _67  and  _70
REMARK   30  A    between atoms: _70  and  _71
REMARK   31  A    between atoms: _71  and  _72
REMARK   32  A    between atoms: _75  and  _77
REMARK   33  A    between atoms: _77  and  _78
REMARK   34  A    between atoms: _77  and  _80
REMARK   35  A    between atoms: _80  and  _81
REMARK   36  A    between atoms: _83  and  _85
REMARK   37  A    between atoms: _85  and  _86
REMARK   38  A    between atoms: _85  and  _88
REMARK   39  A    between atoms: _88  and  _89
REMARK   40  A    between atoms: _94  and  _96
REMARK   41  A    between atoms: _96  and  _97
REMARK   42  A    between atoms: _96  and  _99
REMARK   43  A    between atoms: _99  and  _100
REMARK   44  A    between atoms: _100  and  _101
REMARK   45  A    between atoms: _101  and  _102
REMARK   46  A    between atoms: _112  and  _113
REMARK   47  A    between atoms: _118  and  _120
REMARK   48  A    between atoms: _120  and  _121
REMARK   49  A    between atoms: _120  and  _123
REMARK   50  A    between atoms: _123  and  _124
REMARK   51  A    between atoms: _129  and  _130
REMARK   52  A    between atoms: _132  and  _134
REMARK   53  A    between atoms: _134  and  _135
REMARK   54  A    between atoms: _134  and  _137
REMARK   55  A    between atoms: _137  and  _138
REMARK   56  A    between atoms: _143  and  _144
REMARK   57  A    between atoms: _146  and  _148
REMARK   58  A    between atoms: _148  and  _149
REMARK   59  A    between atoms: _148  and  _151
REMARK   60  A    between atoms: _154  and  _156
REMARK   61  A    between atoms: _156  and  _157
REMARK   62  A    between atoms: _156  and  _159
REMARK   63  A    between atoms: _159  and  _160
REMARK   64  A    between atoms: _166  and  _167
REMARK   65  A    between atoms: _172  and  _174
REMARK   66  A    between atoms: _174  and  _175
REMARK   67  A    between atoms: _174  and  _177
REMARK   68  A    between atoms: _177  and  _178
REMARK   69  A    between atoms: _180  and  _182
REMARK   70  A    between atoms: _182  and  _183
REMARK   71  A    between atoms: _182  and  _185
REMARK   72  A    between atoms: _185  and  _186
REMARK   73  A    between atoms: _191  and  _192
REMARK   74  A    between atoms: _194  and  _196
REMARK   75  A    between atoms: _196  and  _197
REMARK   76  A    between atoms: _196  and  _199
REMARK   77  A    between atoms: _199  and  _200
REMARK   78  A    between atoms: _205  and  _207
REMARK   79  A    between atoms: _207  and  _208
REMARK   80  A    between atoms: _207  and  _210
REMARK   81  A    between atoms: _210  and  _211
REMARK   82  A    between atoms: _216  and  _218
REMARK   83  A    between atoms: _218  and  _219
REMARK   84  A    between atoms: _218  and  _221
REMARK   85  A    between atoms: _221  and  _222
REMARK   86  A    between atoms: _222  and  _223
REMARK   87  A    between atoms: _225  and  _227
REMARK   88  A    between atoms: _227  and  _228
REMARK   89  A    between atoms: _227  and  _230
REMARK   90  A    between atoms: _230  and  _231
REMARK   91  A    between atoms: _236  and  _237
REMARK   92  A    between atoms: _239  and  _241
REMARK   93  A    between atoms: _241  and  _242
REMARK   94  A    between atoms: _241  and  _244
REMARK   95  A    between atoms: _244  and  _245
REMARK   96  A    between atoms: _248  and  _250
REMARK   97  A    between atoms: _250  and  _251
REMARK   98  A    between atoms: _250  and  _253
REMARK   99  A    between atoms: _253  and  _254
REMARK  100  A    between atoms: _254  and  _484
REMARK  101  A    between atoms: _255  and  _257
REMARK  102  A    between atoms: _257  and  _258
REMARK  103  A    between atoms: _257  and  _260
REMARK  104  A    between atoms: _260  and  _261
REMARK  105  A    between atoms: _264  and  _266
REMARK  106  A    between atoms: _266  and  _267
REMARK  107  A    between atoms: _266  and  _269
REMARK  108  A    between atoms: _269  and  _270
REMARK  109  A    between atoms: _275  and  _276
REMARK  110  A    between atoms: _278  and  _280
REMARK  111  A    between atoms: _280  and  _281
REMARK  112  A    between atoms: _280  and  _283
REMARK  113  A    between atoms: _283  and  _284
REMARK  114  A    between atoms: _289  and  _290
REMARK  115  A    between atoms: _292  and  _294
REMARK  116  A    between atoms: _294  and  _295
REMARK  117  A    between atoms: _294  and  _297
REMARK  118  A    between atoms: _297  and  _298
REMARK  119  A    between atoms: _298  and  _299
REMARK  120  A    between atoms: _302  and  _304
REMARK  121  A    between atoms: _304  and  _305
REMARK  122  A    between atoms: _304  and  _307
REMARK  123  A    between atoms: _307  and  _308
REMARK  124  A    between atoms: _308  and  _309
REMARK  125  A    between atoms: _309  and  _310
REMARK  126  A    between atoms: _310  and  _311
REMARK  127  A    between atoms: _315  and  _317
REMARK  128  A    between atoms: _317  and  _318
REMARK  129  A    between atoms: _317  and  _320
REMARK  130  A    between atoms: _320  and  _321
REMARK  131  A    between atoms: _326  and  _327
REMARK  132  A    between atoms: _329  and  _331
REMARK  133  A    between atoms: _331  and  _332
REMARK  134  A    between atoms: _331  and  _334
REMARK  135  A    between atoms: _334  and  _335
REMARK  136  A    between atoms: _340  and  _342
REMARK  137  A    between atoms: _342  and  _343
REMARK  138  A    between atoms: _342  and  _345
REMARK  139  A    between atoms: _345  and  _346
REMARK  140  A    between atoms: _349  and  _351
REMARK  141  A    between atoms: _351  and  _352
REMARK  142  A    between atoms: _351  and  _354
REMARK  143  A    between atoms: _354  and  _355
REMARK  144  A    between atoms: _360  and  _362
REMARK  145  A    between atoms: _362  and  _363
REMARK  146  A    between atoms: _362  and  _365
REMARK  147  A    between atoms: _365  and  _366
REMARK  148  A    between atoms: _376  and  _378
REMARK  149  A    between atoms: _378  and  _379
REMARK  150  A    between atoms: _378  and  _381
REMARK  151  A    between atoms: _381  and  _382
REMARK  152  A    between atoms: _388  and  _390
REMARK  153  A    between atoms: _390  and  _391
REMARK  154  A    between atoms: _390  and  _393
REMARK  155  A    between atoms: _393  and  _394
REMARK  156  A    between atoms: _397  and  _399
REMARK  157  A    between atoms: _399  and  _400
REMARK  158  A    between atoms: _399  and  _402
REMARK  159  A    between atoms: _402  and  _403
REMARK  160  A    between atoms: _406  and  _408
REMARK  161  A    between atoms: _408  and  _409
REMARK  162  A    between atoms: _408  and  _411
REMARK  163  A    between atoms: _411  and  _412
REMARK  164  A    between atoms: _412  and  _413
REMARK  165  A    between atoms: _413  and  _414
REMARK  166  A    between atoms: _423  and  _425
REMARK  167  A    between atoms: _425  and  _426
REMARK  168  A    between atoms: _425  and  _428
REMARK  169  A    between atoms: _428  and  _429
REMARK  170  A    between atoms: _434  and  _436
REMARK  171  A    between atoms: _436  and  _437
REMARK  172  A    between atoms: _436  and  _439
REMARK  173  A    between atoms: _439  and  _440
REMARK  174  A    between atoms: _440  and  _441
REMARK  175  A    between atoms: _441  and  _442
REMARK  176  A    between atoms: _451  and  _453
REMARK  177  A    between atoms: _453  and  _454
REMARK  178  A    between atoms: _457  and  _459
REMARK  179  A    between atoms: _459  and  _460
REMARK  180  A    between atoms: _462  and  _464
REMARK  181  A    between atoms: _464  and  _465
REMARK  182  A    between atoms: _464  and  _467
REMARK  183  A    between atoms: _467  and  _468
REMARK  184  A    between atoms: _478  and  _480
REMARK  185  A    between atoms: _480  and  _481
REMARK  186  A    between atoms: _480  and  _483
REMARK  187  A    between atoms: _483  and  _484
REMARK  188  A    between atoms: _485  and  _487
REMARK  189  A    between atoms: _487  and  _488
REMARK  190  A    between atoms: _491  and  _493
REMARK  191  A    between atoms: _493  and  _494
REMARK  192  A    between atoms: _493  and  _496
REMARK  193  A    between atoms: _496  and  _497
REMARK  194  A    between atoms: _500  and  _502
REMARK  195  A    between atoms: _502  and  _503
REMARK  196  A    between atoms: _502  and  _505
REMARK  197  A    between atoms: _505  and  _506
REMARK  198  A    between atoms: _511  and  _512
REMARK  199  A    between atoms: _514  and  _516
REMARK  200  A    between atoms: _516  and  _517
REMARK  201  A    between atoms: _516  and  _519
REMARK  202  A    between atoms: _519  and  _520
REMARK  203  A    between atoms: _522  and  _524
REMARK  204  A    between atoms: _524  and  _525
REMARK  205  A    between atoms: _524  and  _527
REMARK  206  A    between atoms: _527  and  _528
REMARK  207  A    between atoms: _534  and  _536
REMARK  208  A    between atoms: _536  and  _537
REMARK  209  A    between atoms: _536  and  _539
REMARK  210  A    between atoms: _539  and  _540
REMARK  211  A    between atoms: _543  and  _545
REMARK  212  A    between atoms: _545  and  _546
REMARK  213  A    between atoms: _545  and  _548
REMARK  214  A    between atoms: _548  and  _549
REMARK  215  A    between atoms: _551  and  _553
REMARK  216  A    between atoms: _553  and  _554
REMARK  217  A    between atoms: _553  and  _556
REMARK  218  A    between atoms: _556  and  _557
REMARK  219  A    between atoms: _562  and  _564
REMARK  220  A    between atoms: _564  and  _565
REMARK  221  A    between atoms: _564  and  _567
REMARK  222  A    between atoms: _567  and  _568
REMARK  223  A    between atoms: _573  and  _575
REMARK  224  A    between atoms: _575  and  _576
REMARK  225  A    between atoms: _575  and  _578
REMARK  226  A    between atoms: _578  and  _579
REMARK  227  A    between atoms: _582  and  _584
REMARK  228  A    between atoms: _584  and  _585
REMARK  229  A    between atoms: _588  and  _590
REMARK  230  A    between atoms: _590  and  _591
REMARK  231  A    between atoms: _590  and  _593
REMARK  232  A    between atoms: _593  and  _594
REMARK  233  A    between atoms: _599  and  _600
REMARK  234  A    between atoms: _602  and  _604
REMARK  235  A    between atoms: _604  and  _605
REMARK  236  A    between atoms: _604  and  _607
REMARK  237  A    between atoms: _607  and  _608
REMARK  238  A    between atoms: _613  and  _614
REMARK  239  A    between atoms: _616  and  _618
REMARK  240  A    between atoms: _618  and  _619
REMARK  241  A    between atoms: _618  and  _621
REMARK  242  A    between atoms: _624  and  _626
REMARK  243  A    between atoms: _626  and  _627
REMARK  244  A    between atoms: _626  and  _629
REMARK  245  A    between atoms: _629  and  _630
REMARK  246  A    between atoms: _635  and  _637
REMARK  247  A    between atoms: _637  and  _638
REMARK  248  A    between atoms: _641  and  _643
REMARK  249  A    between atoms: _643  and  _644
REMARK  250  A    between atoms: _643  and  _646
REMARK  251  A    between atoms: _646  and  _647
REMARK  252  A    between atoms: _647  and  _648
REMARK  253  A    between atoms: _648  and  _649
REMARK  254  A    between atoms: _658  and  _660
REMARK  255  A    between atoms: _660  and  _661
REMARK  256  A    between atoms: _660  and  _663
REMARK  257  A    between atoms: _663  and  _664
REMARK  258  A    between atoms: _667  and  _669
REMARK  259  A    between atoms: _669  and  _670
REMARK  260  A    between atoms: _669  and  _672
REMARK  261  A    between atoms: _672  and  _673
REMARK  262  A    between atoms: _676  and  _678
REMARK  263  A    between atoms: _678  and  _679
REMARK  264  A    between atoms: _678  and  _681
REMARK  265  A    between atoms: _681  and  _682
REMARK  266  A    between atoms: _687  and  _689
REMARK  267  A    between atoms: _689  and  _690
REMARK  268  A    between atoms: _689  and  _692
REMARK  269  A    between atoms: _692  and  _693
REMARK                            x       y       z     vdW  Elec       q    Type
REMARK                         _______ _______ _______ _____ _____    ______ ____
ROOT
ATOM      1  O   HOH     1      37.643  42.968  23.112  0.00  0.00    +0.000 OA
ENDROOT
TORSDOF 0
REMARK  Name = ../refined-set-2016/1b7h/1b7h_pocket.pdb
REMARK  269 active torsions:
REMARK  status: ('A' for Active; 'I' for Inactive)
REMARK    1  A    between atoms: _1  and  _3
REMARK    2  A    between atoms: _3  and  _4
REMARK    3  A    between atoms: _6  and  _8
REMARK    4  A    between atoms: _8  and  _9
REMARK    5  A    between atoms: _8  and  _11
REMARK    6  A    between atoms: _11  and  _12
REMARK    7  A    between atoms: _14  and  _16
REMARK    8  A    between atoms: _16  and  _17
REMARK    9  A    between atoms: _16  and  _19
REMARK   10  A    between atoms: _19  and  _20
REMARK   11  A    between atoms: _20  and  _21
REMARK   12  A    between atoms: _26  and  _28
REMARK   13  A    between atoms: _28  and  _29
REMARK   14  A    between atoms: _28  and  _31
REMARK   15  A    between atoms: _31  and  _32
REMARK   16  A    between atoms: _35  and  _37
REMARK   17  A    between atoms: _37  and  _38
REMARK   18  A    between atoms: _37  and  _40
REMARK   19  A    between atoms: _40  and  _41
REMARK   20  A    between atoms: _41  and  _42
REMARK   21  A    between atoms: _45  and  _47
REMARK   22  A    between atoms: _47  and  _48
REMARK   23  A    between atoms: _50  and  _52
REMARK   24  A    between atoms: _52  and  _53
REMARK   25  A    between atoms: _52  and  _55
REMARK   26  A    between atoms: _59  and  _60
REMARK   27  A    between atoms: _65  and  _67
REMARK   28  A    between atoms: _67  and  _68
REMARK   29  A    between atoms: _67  and  _70
REMARK   30  A    between atoms: _70  and  _71
REMARK   31  A    between atoms: _71  and  _72
REMARK   32  A    between atoms: _75  and  _77
REMARK   33  A    between atoms: _77  and  _78
REMARK   34  A    between atoms: _77  and  _80
REMARK   35  A    between atoms: _80  and  _81
REMARK   36  A    between atoms: _83  and  _85
REMARK   37  A    between atoms: _85  and  _86
REMARK   38  A    between atoms: _85  and  _88
REMARK   39  A    between atoms: _88  and  _89
REMARK   40  A    between atoms: _94  and  _96
REMARK   41  A    between atoms: _96  and  _97
REMARK   42  A    between atoms: _96  and  _99
REMARK   43  A    between atoms: _99  and  _100
REMARK   44  A    between atoms: _100  and  _101
REMARK   45  A    between atoms: _101  and  _102
REMARK   46  A    between atoms: _112  and  _113
REMARK   47  A    between atoms: _118  and  _120
REMARK   48  A    between atoms: _120  and  _121
REMARK   49  A    between atoms: _120  and  _123
REMARK   50  A    between atoms: _123  and  _124
REMARK   51  A    between atoms: _129  and  _130
REMARK   52  A    between atoms: _132  and  _134
REMARK   53  A    between atoms: _134  and  _135
REMARK   54  A    between atoms: _134  and  _137
REMARK   55  A    between atoms: _137  and  _138
REMARK   56  A    between atoms: _143  and  _144
REMARK   57  A    between atoms: _146  and  _148
REMARK   58  A    between atoms: _148  and  _149
REMARK   59  A    between atoms: _148  and  _151
REMARK   60  A    between atoms: _154  and  _156
REMARK   61  A    between atoms: _156  and  _157
REMARK   62  A    between atoms: _156  and  _159
REMARK   63  A    between atoms: _159  and  _160
REMARK   64  A    between atoms: _166  and  _167
REMARK   65  A    between atoms: _172  and  _174
REMARK   66  A    between atoms: _174  and  _175
REMARK   67  A    between atoms: _174  and  _177
REMARK   68  A    between atoms: _177  and  _178
REMARK   69  A    between atoms: _180  and  _182
REMARK   70  A    between atoms: _182  and  _183
REMARK   71  A    between atoms: _182  and  _185
REMARK   72  A    between atoms: _185  and  _186
REMARK   73  A    between atoms: _191  and  _192
REMARK   74  A    between atoms: _194  and  _196
REMARK   75  A    between atoms: _196  and  _197
REMARK   76  A    between atoms: _196  and  _199
REMARK   77  A    between atoms: _199  and  _200
REMARK   78  A    between atoms: _205  and  _207
REMARK   79  A    between atoms: _207  and  _208
REMARK   80  A    between atoms: _207  and  _210
REMARK   81  A    between atoms: _210  and  _211
REMARK   82  A    between atoms: _216  and  _218
REMARK   83  A    between atoms: _218  and  _219
REMARK   84  A    between atoms: _218  and  _221
REMARK   85  A    between atoms: _221  and  _222
REMARK   86  A    between atoms: _222  and  _223
REMARK   87  A    between atoms: _225  and  _227
REMARK   88  A    between atoms: _227  and  _228
REMARK   89  A    between atoms: _227  and  _230
REMARK   90  A    between atoms: _230  and  _231
REMARK   91  A    between atoms: _236  and  _237
REMARK   92  A    between atoms: _239  and  _241
REMARK   93  A    between atoms: _241  and  _242
REMARK   94  A    between atoms: _241  and  _244
REMARK   95  A    between atoms: _244  and  _245
REMARK   96  A    between atoms: _248  and  _250
REMARK   97  A    between atoms: _250  and  _251
REMARK   98  A    between atoms: _250  and  _253
REMARK   99  A    between atoms: _253  and  _254
REMARK  100  A    between atoms: _254  and  _484
REMARK  101  A    between atoms: _255  and  _257
REMARK  102  A    between atoms: _257  and  _258
REMARK  103  A    between atoms: _257  and  _260
REMARK  104  A    between atoms: _260  and  _261
REMARK  105  A    between atoms: _264  and  _266
REMARK  106  A    between atoms: _266  and  _267
REMARK  107  A    between atoms: _266  and  _269
REMARK  108  A    between atoms: _269  and  _270
REMARK  109  A    between atoms: _275  and  _276
REMARK  110  A    between atoms: _278  and  _280
REMARK  111  A    between atoms: _280  and  _281
REMARK  112  A    between atoms: _280  and  _283
REMARK  113  A    between atoms: _283  and  _284
REMARK  114  A    between atoms: _289  and  _290
REMARK  115  A    between atoms: _292  and  _294
REMARK  116  A    between atoms: _294  and  _295
REMARK  117  A    between atoms: _294  and  _297
REMARK  118  A    between atoms: _297  and  _298
REMARK  119  A    between atoms: _298  and  _299
REMARK  120  A    between atoms: _302  and  _304
REMARK  121  A    between atoms: _304  and  _305
REMARK  122  A    between atoms: _304  and  _307
REMARK  123  A    between atoms: _307  and  _308
REMARK  124  A    between atoms: _308  and  _309
REMARK  125  A    between atoms: _309  and  _310
REMARK  126  A    between atoms: _310  and  _311
REMARK  127  A    between atoms: _315  and  _317
REMARK  128  A    between atoms: _317  and  _318
REMARK  129  A    between atoms: _317  and  _320
REMARK  130  A    between atoms: _320  and  _321
REMARK  131  A    between atoms: _326  and  _327
REMARK  132  A    between atoms: _329  and  _331
REMARK  133  A    between atoms: _331  and  _332
REMARK  134  A    between atoms: _331  and  _334
REMARK  135  A    between atoms: _334  and  _335
REMARK  136  A    between atoms: _340  and  _342
REMARK  137  A    between atoms: _342  and  _343
REMARK  138  A    between atoms: _342  and  _345
REMARK  139  A    between atoms: _345  and  _346
REMARK  140  A    between atoms: _349  and  _351
REMARK  141  A    between atoms: _351  and  _352
REMARK  142  A    between atoms: _351  and  _354
REMARK  143  A    between atoms: _354  and  _355
REMARK  144  A    between atoms: _360  and  _362
REMARK  145  A    between atoms: _362  and  _363
REMARK  146  A    between atoms: _362  and  _365
REMARK  147  A    between atoms: _365  and  _366
REMARK  148  A    between atoms: _376  and  _378
REMARK  149  A    between atoms: _378  and  _379
REMARK  150  A    between atoms: _378  and  _381
REMARK  151  A    between atoms: _381  and  _382
REMARK  152  A    between atoms: _388  and  _390
REMARK  153  A    between atoms: _390  and  _391
REMARK  154  A    between atoms: _390  and  _393
REMARK  155  A    between atoms: _393  and  _394
REMARK  156  A    between atoms: _397  and  _399
REMARK  157  A    between atoms: _399  and  _400
REMARK  158  A    between atoms: _399  and  _402
REMARK  159  A    between atoms: _402  and  _403
REMARK  160  A    between atoms: _406  and  _408
REMARK  161  A    between atoms: _408  and  _409
REMARK  162  A    between atoms: _408  and  _411
REMARK  163  A    between atoms: _411  and  _412
REMARK  164  A    between atoms: _412  and  _413
REMARK  165  A    between atoms: _413  and  _414
REMARK  166  A    between atoms: _423  and  _425
REMARK  167  A    between atoms: _425  and  _426
REMARK  168  A    between atoms: _425  and  _428
REMARK  169  A    between atoms: _428  and  _429
REMARK  170  A    between atoms: _434  and  _436
REMARK  171  A    between atoms: _436  and  _437
REMARK  172  A    between atoms: _436  and  _439
REMARK  173  A    between atoms: _439  and  _440
REMARK  174  A    between atoms: _440  and  _441
REMARK  175  A    between atoms: _441  and  _442
REMARK  176  A    between atoms: _451  and  _453
REMARK  177  A    between atoms: _453  and  _454
REMARK  178  A    between atoms: _457  and  _459
REMARK  179  A    between atoms: _459  and  _460
REMARK  180  A    between atoms: _462  and  _464
REMARK  181  A    between atoms: _464  and  _465
REMARK  182  A    between atoms: _464  and  _467
REMARK  183  A    between atoms: _467  and  _468
REMARK  184  A    between atoms: _478  and  _480
REMARK  185  A    between atoms: _480  and  _481
REMARK  186  A    between atoms: _480  and  _483
REMARK  187  A    between atoms: _483  and  _484
REMARK  188  A    between atoms: _485  and  _487
REMARK  189  A    between atoms: _487  and  _488
REMARK  190  A    between atoms: _491  and  _493
REMARK  191  A    between atoms: _493  and  _494
REMARK  192  A    between atoms: _493  and  _496
REMARK  193  A    between atoms: _496  and  _497
REMARK  194  A    between atoms: _500  and  _502
REMARK  195  A    between atoms: _502  and  _503
REMARK  196  A    between atoms: _502  and  _505
REMARK  197  A    between atoms: _505  and  _506
REMARK  198  A    between atoms: _511  and  _512
REMARK  199  A    between atoms: _514  and  _516
REMARK  200  A    between atoms: _516  and  _517
REMARK  201  A    between atoms: _516  and  _519
REMARK  202  A    between atoms: _519  and  _520
REMARK  203  A    between atoms: _522  and  _524
REMARK  204  A    between atoms: _524  and  _525
REMARK  205  A    between atoms: _524  and  _527
REMARK  206  A    between atoms: _527  and  _528
REMARK  207  A    between atoms: _534  and  _536
REMARK  208  A    between atoms: _536  and  _537
REMARK  209  A    between atoms: _536  and  _539
REMARK  210  A    between atoms: _539  and  _540
REMARK  211  A    between atoms: _543  and  _545
REMARK  212  A    between atoms: _545  and  _546
REMARK  213  A    between atoms: _545  and  _548
REMARK  214  A    between atoms: _548  and  _549
REMARK  215  A    between atoms: _551  and  _553
REMARK  216  A    between atoms: _553  and  _554
REMARK  217  A    between atoms: _553  and  _556
REMARK  218  A    between atoms: _556  and  _557
REMARK  219  A    between atoms: _562  and  _564
REMARK  220  A    between atoms: _564  and  _565
REMARK  221  A    between atoms: _564  and  _567
REMARK  222  A    between atoms: _567  and  _568
REMARK  223  A    between atoms: _573  and  _575
REMARK  224  A    between atoms: _575  and  _576
REMARK  225  A    between atoms: _575  and  _578
REMARK  226  A    between atoms: _578  and  _579
REMARK  227  A    between atoms: _582  and  _584
REMARK  228  A    between atoms: _584  and  _585
REMARK  229  A    between atoms: _588  and  _590
REMARK  230  A    between atoms: _590  and  _591
REMARK  231  A    between atoms: _590  and  _593
REMARK  232  A    between atoms: _593  and  _594
REMARK  233  A    between atoms: _599  and  _600
REMARK  234  A    between atoms: _602  and  _604
REMARK  235  A    between atoms: _604  and  _605
REMARK  236  A    between atoms: _604  and  _607
REMARK  237  A    between atoms: _607  and  _608
REMARK  238  A    between atoms: _613  and  _614
REMARK  239  A    between atoms: _616  and  _618
REMARK  240  A    between atoms: _618  and  _619
REMARK  241  A    between atoms: _618  and  _621
REMARK  242  A    between atoms: _624  and  _626
REMARK  243  A    between atoms: _626  and  _627
REMARK  244  A    between atoms: _626  and  _629
REMARK  245  A    between atoms: _629  and  _630
REMARK  246  A    between atoms: _635  and  _637
REMARK  247  A    between atoms: _637  and  _638
REMARK  248  A    between atoms: _641  and  _643
REMARK  249  A    between atoms: _643  and  _644
REMARK  250  A    between atoms: _643  and  _646
REMARK  251  A    between atoms: _646  and  _647
REMARK  252  A    between atoms: _647  and  _648
REMARK  253  A    between atoms: _648  and  _649
REMARK  254  A    between atoms: _658  and  _660
REMARK  255  A    between atoms: _660  and  _661
REMARK  256  A    between atoms: _660  and  _663
REMARK  257  A    between atoms: _663  and  _664
REMARK  258  A    between atoms: _667  and  _669
REMARK  259  A    between atoms: _669  and  _670
REMARK  260  A    between atoms: _669  and  _672
REMARK  261  A    between atoms: _672  and  _673
REMARK  262  A    between atoms: _676  and  _678
REMARK  263  A    between atoms: _678  and  _679
REMARK  264  A    between atoms: _678  and  _681
REMARK  265  A    between atoms: _681  and  _682
REMARK  266  A    between atoms: _687  and  _689
REMARK  267  A    between atoms: _689  and  _690
REMARK  268  A    between atoms: _689  and  _692
REMARK  269  A    between atoms: _692  and  _693
REMARK                            x       y       z     vdW  Elec       q    Type
REMARK                         _______ _______ _______ _____ _____    ______ ____
ROOT
ATOM      1  O   HOH     1      44.022  31.821  12.041  0.00  0.00    +0.000 OA
ENDROOT
TORSDOF 0
REMARK  Name = ../refined-set-2016/1b7h/1b7h_pocket.pdb
REMARK  269 active torsions:
REMARK  status: ('A' for Active; 'I' for Inactive)
REMARK    1  A    between atoms: _1  and  _3
REMARK    2  A    between atoms: _3  and  _4
REMARK    3  A    between atoms: _6  and  _8
REMARK    4  A    between atoms: _8  and  _9
REMARK    5  A    between atoms: _8  and  _11
REMARK    6  A    between atoms: _11  and  _12
REMARK    7  A    between atoms: _14  and  _16
REMARK    8  A    between atoms: _16  and  _17
REMARK    9  A    between atoms: _16  and  _19
REMARK   10  A    between atoms: _19  and  _20
REMARK   11  A    between atoms: _20  and  _21
REMARK   12  A    between atoms: _26  and  _28
REMARK   13  A    between atoms: _28  and  _29
REMARK   14  A    between atoms: _28  and  _31
REMARK   15  A    between atoms: _31  and  _32
REMARK   16  A    between atoms: _35  and  _37
REMARK   17  A    between atoms: _37  and  _38
REMARK   18  A    between atoms: _37  and  _40
REMARK   19  A    between atoms: _40  and  _41
REMARK   20  A    between atoms: _41  and  _42
REMARK   21  A    between atoms: _45  and  _47
REMARK   22  A    between atoms: _47  and  _48
REMARK   23  A    between atoms: _50  and  _52
REMARK   24  A    between atoms: _52  and  _53
REMARK   25  A    between atoms: _52  and  _55
REMARK   26  A    between atoms: _59  and  _60
REMARK   27  A    between atoms: _65  and  _67
REMARK   28  A    between atoms: _67  and  _68
REMARK   29  A    between atoms: _67  and  _70
REMARK   30  A    between atoms: _70  and  _71
REMARK   31  A    between atoms: _71  and  _72
REMARK   32  A    between atoms: _75  and  _77
REMARK   33  A    between atoms: _77  and  _78
REMARK   34  A    between atoms: _77  and  _80
REMARK   35  A    between atoms: _80  and  _81
REMARK   36  A    between atoms: _83  and  _85
REMARK   37  A    between atoms: _85  and  _86
REMARK   38  A    between atoms: _85  and  _88
REMARK   39  A    between atoms: _88  and  _89
REMARK   40  A    between atoms: _94  and  _96
REMARK   41  A    between atoms: _96  and  _97
REMARK   42  A    between atoms: _96  and  _99
REMARK   43  A    between atoms: _99  and  _100
REMARK   44  A    between atoms: _100  and  _101
REMARK   45  A    between atoms: _101  and  _102
REMARK   46  A    between atoms: _112  and  _113
REMARK   47  A    between atoms: _118  and  _120
REMARK   48  A    between atoms: _120  and  _121
REMARK   49  A    between atoms: _120  and  _123
REMARK   50  A    between atoms: _123  and  _124
REMARK   51  A    between atoms: _129  and  _130
REMARK   52  A    between atoms: _132  and  _134
REMARK   53  A    between atoms: _134  and  _135
REMARK   54  A    between atoms: _134  and  _137
REMARK   55  A    between atoms: _137  and  _138
REMARK   56  A    between atoms: _143  and  _144
REMARK   57  A    between atoms: _146  and  _148
REMARK   58  A    between atoms: _148  and  _149
REMARK   59  A    between atoms: _148  and  _151
REMARK   60  A    between atoms: _154  and  _156
REMARK   61  A    between atoms: _156  and  _157
REMARK   62  A    between atoms: _156  and  _159
REMARK   63  A    between atoms: _159  and  _160
REMARK   64  A    between atoms: _166  and  _167
REMARK   65  A    between atoms: _172  and  _174
REMARK   66  A    between atoms: _174  and  _175
REMARK   67  A    between atoms: _174  and  _177
REMARK   68  A    between atoms: _177  and  _178
REMARK   69  A    between atoms: _180  and  _182
REMARK   70  A    between atoms: _182  and  _183
REMARK   71  A    between atoms: _182  and  _185
REMARK   72  A    between atoms: _185  and  _186
REMARK   73  A    between atoms: _191  and  _192
REMARK   74  A    between atoms: _194  and  _196
REMARK   75  A    between atoms: _196  and  _197
REMARK   76  A    between atoms: _196  and  _199
REMARK   77  A    between atoms: _199  and  _200
REMARK   78  A    between atoms: _205  and  _207
REMARK   79  A    between atoms: _207  and  _208
REMARK   80  A    between atoms: _207  and  _210
REMARK   81  A    between atoms: _210  and  _211
REMARK   82  A    between atoms: _216  and  _218
REMARK   83  A    between atoms: _218  and  _219
REMARK   84  A    between atoms: _218  and  _221
REMARK   85  A    between atoms: _221  and  _222
REMARK   86  A    between atoms: _222  and  _223
REMARK   87  A    between atoms: _225  and  _227
REMARK   88  A    between atoms: _227  and  _228
REMARK   89  A    between atoms: _227  and  _230
REMARK   90  A    between atoms: _230  and  _231
REMARK   91  A    between atoms: _236  and  _237
REMARK   92  A    between atoms: _239  and  _241
REMARK   93  A    between atoms: _241  and  _242
REMARK   94  A    between atoms: _241  and  _244
REMARK   95  A    between atoms: _244  and  _245
REMARK   96  A    between atoms: _248  and  _250
REMARK   97  A    between atoms: _250  and  _251
REMARK   98  A    between atoms: _250  and  _253
REMARK   99  A    between atoms: _253  and  _254
REMARK  100  A    between atoms: _254  and  _484
REMARK  101  A    between atoms: _255  and  _257
REMARK  102  A    between atoms: _257  and  _258
REMARK  103  A    between atoms: _257  and  _260
REMARK  104  A    between atoms: _260  and  _261
REMARK  105  A    between atoms: _264  and  _266
REMARK  106  A    between atoms: _266  and  _267
REMARK  107  A    between atoms: _266  and  _269
REMARK  108  A    between atoms: _269  and  _270
REMARK  109  A    between atoms: _275  and  _276
REMARK  110  A    between atoms: _278  and  _280
REMARK  111  A    between atoms: _280  and  _281
REMARK  112  A    between atoms: _280  and  _283
REMARK  113  A    between atoms: _283  and  _284
REMARK  114  A    between atoms: _289  and  _290
REMARK  115  A    between atoms: _292  and  _294
REMARK  116  A    between atoms: _294  and  _295
REMARK  117  A    between atoms: _294  and  _297
REMARK  118  A    between atoms: _297  and  _298
REMARK  119  A    between atoms: _298  and  _299
REMARK  120  A    between atoms: _302  and  _304
REMARK  121  A    between atoms: _304  and  _305
REMARK  122  A    between atoms: _304  and  _307
REMARK  123  A    between atoms: _307  and  _308
REMARK  124  A    between atoms: _308  and  _309
REMARK  125  A    between atoms: _309  and  _310
REMARK  126  A    between atoms: _310  and  _311
REMARK  127  A    between atoms: _315  and  _317
REMARK  128  A    between atoms: _317  and  _318
REMARK  129  A    between atoms: _317  and  _320
REMARK  130  A    between atoms: _320  and  _321
REMARK  131  A    between atoms: _326  and  _327
REMARK  132  A    between atoms: _329  and  _331
REMARK  133  A    between atoms: _331  and  _332
REMARK  134  A    between atoms: _331  and  _334
REMARK  135  A    between atoms: _334  and  _335
REMARK  136  A    between atoms: _340  and  _342
REMARK  137  A    between atoms: _342  and  _343
REMARK  138  A    between atoms: _342  and  _345
REMARK  139  A    between atoms: _345  and  _346
REMARK  140  A    between atoms: _349  and  _351
REMARK  141  A    between atoms: _351  and  _352
REMARK  142  A    between atoms: _351  and  _354
REMARK  143  A    between atoms: _354  and  _355
REMARK  144  A    between atoms: _360  and  _362
REMARK  145  A    between atoms: _362  and  _363
REMARK  146  A    between atoms: _362  and  _365
REMARK  147  A    between atoms: _365  and  _366
REMARK  148  A    between atoms: _376  and  _378
REMARK  149  A    between atoms: _378  and  _379
REMARK  150  A    between atoms: _378  and  _381
REMARK  151  A    between atoms: _381  and  _382
REMARK  152  A    between atoms: _388  and  _390
REMARK  153  A    between atoms: _390  and  _391
REMARK  154  A    between atoms: _390  and  _393
REMARK  155  A    between atoms: _393  and  _394
REMARK  156  A    between atoms: _397  and  _399
REMARK  157  A    between atoms: _399  and  _400
REMARK  158  A    between atoms: _399  and  _402
REMARK  159  A    between atoms: _402  and  _403
REMARK  160  A    between atoms: _406  and  _408
REMARK  161  A    between atoms: _408  and  _409
REMARK  162  A    between atoms: _408  and  _411
REMARK  163  A    between atoms: _411  and  _412
REMARK  164  A    between atoms: _412  and  _413
REMARK  165  A    between atoms: _413  and  _414
REMARK  166  A    between atoms: _423  and  _425
REMARK  167  A    between atoms: _425  and  _426
REMARK  168  A    between atoms: _425  and  _428
REMARK  169  A    between atoms: _428  and  _429
REMARK  170  A    between atoms: _434  and  _436
REMARK  171  A    between atoms: _436  and  _437
REMARK  172  A    between atoms: _436  and  _439
REMARK  173  A    between atoms: _439  and  _440
REMARK  174  A    between atoms: _440  and  _441
REMARK  175  A    between atoms: _441  and  _442
REMARK  176  A    between atoms: _451  and  _453
REMARK  177  A    between atoms: _453  and  _454
REMARK  178  A    between atoms: _457  and  _459
REMARK  179  A    between atoms: _459  and  _460
REMARK  180  A    between atoms: _462  and  _464
REMARK  181  A    between atoms: _464  and  _465
REMARK  182  A    between atoms: _464  and  _467
REMARK  183  A    between atoms: _467  and  _468
REMARK  184  A    between atoms: _478  and  _480
REMARK  185  A    between atoms: _480  and  _481
REMARK  186  A    between atoms: _480  and  _483
REMARK  187  A    between atoms: _483  and  _484
REMARK  188  A    between atoms: _485  and  _487
REMARK  189  A    between atoms: _487  and  _488
REMARK  190  A    between atoms: _491  and  _493
REMARK  191  A    between atoms: _493  and  _494
REMARK  192  A    between atoms: _493  and  _496
REMARK  193  A    between atoms: _496  and  _497
REMARK  194  A    between atoms: _500  and  _502
REMARK  195  A    between atoms: _502  and  _503
REMARK  196  A    between atoms: _502  and  _505
REMARK  197  A    between atoms: _505  and  _506
REMARK  198  A    between atoms: _511  and  _512
REMARK  199  A    between atoms: _514  and  _516
REMARK  200  A    between atoms: _516  and  _517
REMARK  201  A    between atoms: _516  and  _519
REMARK  202  A    between atoms: _519  and  _520
REMARK  203  A    between atoms: _522  and  _524
REMARK  204  A    between atoms: _524  and  _525
REMARK  205  A    between atoms: _524  and  _527
REMARK  206  A    between atoms: _527  and  _528
REMARK  207  A    between atoms: _534  and  _536
REMARK  208  A    between atoms: _536  and  _537
REMARK  209  A    between atoms: _536  and  _539
REMARK  210  A    between atoms: _539  and  _540
REMARK  211  A    between atoms: _543  and  _545
REMARK  212  A    between atoms: _545  and  _546
REMARK  213  A    between atoms: _545  and  _548
REMARK  214  A    between atoms: _548  and  _549
REMARK  215  A    between atoms: _551  and  _553
REMARK  216  A    between atoms: _553  and  _554
REMARK  217  A    between atoms: _553  and  _556
REMARK  218  A    between atoms: _556  and  _557
REMARK  219  A    between atoms: _562  and  _564
REMARK  220  A    between atoms: _564  and  _565
REMARK  221  A    between atoms: _564  and  _567
REMARK  222  A    between atoms: _567  and  _568
REMARK  223  A    between atoms: _573  and  _575
REMARK  224  A    between atoms: _575  and  _576
REMARK  225  A    between atoms: _575  and  _578
REMARK  226  A    between atoms: _578  and  _579
REMARK  227  A    between atoms: _582  and  _584
REMARK  228  A    between atoms: _584  and  _585
REMARK  229  A    between atoms: _588  and  _590
REMARK  230  A    between atoms: _590  and  _591
REMARK  231  A    between atoms: _590  and  _593
REMARK  232  A    between atoms: _593  and  _594
REMARK  233  A    between atoms: _599  and  _600
REMARK  234  A    between atoms: _602  and  _604
REMARK  235  A    between atoms: _604  and  _605
REMARK  236  A    between atoms: _604  and  _607
REMARK  237  A    between atoms: _607  and  _608
REMARK  238  A    between atoms: _613  and  _614
REMARK  239  A    between atoms: _616  and  _618
REMARK  240  A    between atoms: _618  and  _619
REMARK  241  A    between atoms: _618  and  _621
REMARK  242  A    between atoms: _624  and  _626
REMARK  243  A    between atoms: _626  and  _627
REMARK  244  A    between atoms: _626  and  _629
REMARK  245  A    between atoms: _629  and  _630
REMARK  246  A    between atoms: _635  and  _637
REMARK  247  A    between atoms: _637  and  _638
REMARK  248  A    between atoms: _641  and  _643
REMARK  249  A    between atoms: _643  and  _644
REMARK  250  A    between atoms: _643  and  _646
REMARK  251  A    between atoms: _646  and  _647
REMARK  252  A    between atoms: _647  and  _648
REMARK  253  A    between atoms: _648  and  _649
REMARK  254  A    between atoms: _658  and  _660
REMARK  255  A    between atoms: _660  and  _661
REMARK  256  A    between atoms: _660  and  _663
REMARK  257  A    between atoms: _663  and  _664
REMARK  258  A    between atoms: _667  and  _669
REMARK  259  A    between atoms: _669  and  _670
REMARK  260  A    between atoms: _669  and  _672
REMARK  261  A    between atoms: _672  and  _673
REMARK  262  A    between atoms: _676  and  _678
REMARK  263  A    between atoms: _678  and  _679
REMARK  264  A    between atoms: _678  and  _681
REMARK  265  A    between atoms: _681  and  _682
REMARK  266  A    between atoms: _687  and  _689
REMARK  267  A    between atoms: _689  and  _690
REMARK  268  A    between atoms: _689  and  _692
REMARK  269  A    between atoms: _692  and  _693
REMARK                            x       y       z     vdW  Elec       q    Type
REMARK                         _______ _______ _______ _____ _____    ______ ____
ROOT
ATOM      1  O   HOH     1      37.510  25.991  14.462  0.00  0.00    +0.000 OA
ENDROOT
TORSDOF 0
REMARK  Name = ../refined-set-2016/1b7h/1b7h_pocket.pdb
REMARK  269 active torsions:
REMARK  status: ('A' for Active; 'I' for Inactive)
REMARK    1  A    between atoms: _1  and  _3
REMARK    2  A    between atoms: _3  and  _4
REMARK    3  A    between atoms: _6  and  _8
REMARK    4  A    between atoms: _8  and  _9
REMARK    5  A    between atoms: _8  and  _11
REMARK    6  A    between atoms: _11  and  _12
REMARK    7  A    between atoms: _14  and  _16
REMARK    8  A    between atoms: _16  and  _17
REMARK    9  A    between atoms: _16  and  _19
REMARK   10  A    between atoms: _19  and  _20
REMARK   11  A    between atoms: _20  and  _21
REMARK   12  A    between atoms: _26  and  _28
REMARK   13  A    between atoms: _28  and  _29
REMARK   14  A    between atoms: _28  and  _31
REMARK   15  A    between atoms: _31  and  _32
REMARK   16  A    between atoms: _35  and  _37
REMARK   17  A    between atoms: _37  and  _38
REMARK   18  A    between atoms: _37  and  _40
REMARK   19  A    between atoms: _40  and  _41
REMARK   20  A    between atoms: _41  and  _42
REMARK   21  A    between atoms: _45  and  _47
REMARK   22  A    between atoms: _47  and  _48
REMARK   23  A    between atoms: _50  and  _52
REMARK   24  A    between atoms: _52  and  _53
REMARK   25  A    between atoms: _52  and  _55
REMARK   26  A    between atoms: _59  and  _60
REMARK   27  A    between atoms: _65  and  _67
REMARK   28  A    between atoms: _67  and  _68
REMARK   29  A    between atoms: _67  and  _70
REMARK   30  A    between atoms: _70  and  _71
REMARK   31  A    between atoms: _71  and  _72
REMARK   32  A    between atoms: _75  and  _77
REMARK   33  A    between atoms: _77  and  _78
REMARK   34  A    between atoms: _77  and  _80
REMARK   35  A    between atoms: _80  and  _81
REMARK   36  A    between atoms: _83  and  _85
REMARK   37  A    between atoms: _85  and  _86
REMARK   38  A    between atoms: _85  and  _88
REMARK   39  A    between atoms: _88  and  _89
REMARK   40  A    between atoms: _94  and  _96
REMARK   41  A    between atoms: _96  and  _97
REMARK   42  A    between atoms: _96  and  _99
REMARK   43  A    between atoms: _99  and  _100
REMARK   44  A    between atoms: _100  and  _101
REMARK   45  A    between atoms: _101  and  _102
REMARK   46  A    between atoms: _112  and  _113
REMARK   47  A    between atoms: _118  and  _120
REMARK   48  A    between atoms: _120  and  _121
REMARK   49  A    between atoms: _120  and  _123
REMARK   50  A    between atoms: _123  and  _124
REMARK   51  A    between atoms: _129  and  _130
REMARK   52  A    between atoms: _132  and  _134
REMARK   53  A    between atoms: _134  and  _135
REMARK   54  A    between atoms: _134  and  _137
REMARK   55  A    between atoms: _137  and  _138
REMARK   56  A    between atoms: _143  and  _144
REMARK   57  A    between atoms: _146  and  _148
REMARK   58  A    between atoms: _148  and  _149
REMARK   59  A    between atoms: _148  and  _151
REMARK   60  A    between atoms: _154  and  _156
REMARK   61  A    between atoms: _156  and  _157
REMARK   62  A    between atoms: _156  and  _159
REMARK   63  A    between atoms: _159  and  _160
REMARK   64  A    between atoms: _166  and  _167
REMARK   65  A    between atoms: _172  and  _174
REMARK   66  A    between atoms: _174  and  _175
REMARK   67  A    between atoms: _174  and  _177
REMARK   68  A    between atoms: _177  and  _178
REMARK   69  A    between atoms: _180  and  _182
REMARK   70  A    between atoms: _182  and  _183
REMARK   71  A    between atoms: _182  and  _185
REMARK   72  A    between atoms: _185  and  _186
REMARK   73  A    between atoms: _191  and  _192
REMARK   74  A    between atoms: _194  and  _196
REMARK   75  A    between atoms: _196  and  _197
REMARK   76  A    between atoms: _196  and  _199
REMARK   77  A    between atoms: _199  and  _200
REMARK   78  A    between atoms: _205  and  _207
REMARK   79  A    between atoms: _207  and  _208
REMARK   80  A    between atoms: _207  and  _210
REMARK   81  A    between atoms: _210  and  _211
REMARK   82  A    between atoms: _216  and  _218
REMARK   83  A    between atoms: _218  and  _219
REMARK   84  A    between atoms: _218  and  _221
REMARK   85  A    between atoms: _221  and  _222
REMARK   86  A    between atoms: _222  and  _223
REMARK   87  A    between atoms: _225  and  _227
REMARK   88  A    between atoms: _227  and  _228
REMARK   89  A    between atoms: _227  and  _230
REMARK   90  A    between atoms: _230  and  _231
REMARK   91  A    between atoms: _236  and  _237
REMARK   92  A    between atoms: _239  and  _241
REMARK   93  A    between atoms: _241  and  _242
REMARK   94  A    between atoms: _241  and  _244
REMARK   95  A    between atoms: _244  and  _245
REMARK   96  A    between atoms: _248  and  _250
REMARK   97  A    between atoms: _250  and  _251
REMARK   98  A    between atoms: _250  and  _253
REMARK   99  A    between atoms: _253  and  _254
REMARK  100  A    between atoms: _254  and  _484
REMARK  101  A    between atoms: _255  and  _257
REMARK  102  A    between atoms: _257  and  _258
REMARK  103  A    between atoms: _257  and  _260
REMARK  104  A    between atoms: _260  and  _261
REMARK  105  A    between atoms: _264  and  _266
REMARK  106  A    between atoms: _266  and  _267
REMARK  107  A    between atoms: _266  and  _269
REMARK  108  A    between atoms: _269  and  _270
REMARK  109  A    between atoms: _275  and  _276
REMARK  110  A    between atoms: _278  and  _280
REMARK  111  A    between atoms: _280  and  _281
REMARK  112  A    between atoms: _280  and  _283
REMARK  113  A    between atoms: _283  and  _284
REMARK  114  A    between atoms: _289  and  _290
REMARK  115  A    between atoms: _292  and  _294
REMARK  116  A    between atoms: _294  and  _295
REMARK  117  A    between atoms: _294  and  _297
REMARK  118  A    between atoms: _297  and  _298
REMARK  119  A    between atoms: _298  and  _299
REMARK  120  A    between atoms: _302  and  _304
REMARK  121  A    between atoms: _304  and  _305
REMARK  122  A    between atoms: _304  and  _307
REMARK  123  A    between atoms: _307  and  _308
REMARK  124  A    between atoms: _308  and  _309
REMARK  125  A    between atoms: _309  and  _310
REMARK  126  A    between atoms: _310  and  _311
REMARK  127  A    between atoms: _315  and  _317
REMARK  128  A    between atoms: _317  and  _318
REMARK  129  A    between atoms: _317  and  _320
REMARK  130  A    between atoms: _320  and  _321
REMARK  131  A    between atoms: _326  and  _327
REMARK  132  A    between atoms: _329  and  _331
REMARK  133  A    between atoms: _331  and  _332
REMARK  134  A    between atoms: _331  and  _334
REMARK  135  A    between atoms: _334  and  _335
REMARK  136  A    between atoms: _340  and  _342
REMARK  137  A    between atoms: _342  and  _343
REMARK  138  A    between atoms: _342  and  _345
REMARK  139  A    between atoms: _345  and  _346
REMARK  140  A    between atoms: _349  and  _351
REMARK  141  A    between atoms: _351  and  _352
REMARK  142  A    between atoms: _351  and  _354
REMARK  143  A    between atoms: _354  and  _355
REMARK  144  A    between atoms: _360  and  _362
REMARK  145  A    between atoms: _362  and  _363
REMARK  146  A    between atoms: _362  and  _365
REMARK  147  A    between atoms: _365  and  _366
REMARK  148  A    between atoms: _376  and  _378
REMARK  149  A    between atoms: _378  and  _379
REMARK  150  A    between atoms: _378  and  _381
REMARK  151  A    between atoms: _381  and  _382
REMARK  152  A    between atoms: _388  and  _390
REMARK  153  A    between atoms: _390  and  _391
REMARK  154  A    between atoms: _390  and  _393
REMARK  155  A    between atoms: _393  and  _394
REMARK  156  A    between atoms: _397  and  _399
REMARK  157  A    between atoms: _399  and  _400
REMARK  158  A    between atoms: _399  and  _402
REMARK  159  A    between atoms: _402  and  _403
REMARK  160  A    between atoms: _406  and  _408
REMARK  161  A    between atoms: _408  and  _409
REMARK  162  A    between atoms: _408  and  _411
REMARK  163  A    between atoms: _411  and  _412
REMARK  164  A    between atoms: _412  and  _413
REMARK  165  A    between atoms: _413  and  _414
REMARK  166  A    between atoms: _423  and  _425
REMARK  167  A    between atoms: _425  and  _426
REMARK  168  A    between atoms: _425  and  _428
REMARK  169  A    between atoms: _428  and  _429
REMARK  170  A    between atoms: _434  and  _436
REMARK  171  A    between atoms: _436  and  _437
REMARK  172  A    between atoms: _436  and  _439
REMARK  173  A    between atoms: _439  and  _440
REMARK  174  A    between atoms: _440  and  _441
REMARK  175  A    between atoms: _441  and  _442
REMARK  176  A    between atoms: _451  and  _453
REMARK  177  A    between atoms: _453  and  _454
REMARK  178  A    between atoms: _457  and  _459
REMARK  179  A    between atoms: _459  and  _460
REMARK  180  A    between atoms: _462  and  _464
REMARK  181  A    between atoms: _464  and  _465
REMARK  182  A    between atoms: _464  and  _467
REMARK  183  A    between atoms: _467  and  _468
REMARK  184  A    between atoms: _478  and  _480
REMARK  185  A    between atoms: _480  and  _481
REMARK  186  A    between atoms: _480  and  _483
REMARK  187  A    between atoms: _483  and  _484
REMARK  188  A    between atoms: _485  and  _487
REMARK  189  A    between atoms: _487  and  _488
REMARK  190  A    between atoms: _491  and  _493
REMARK  191  A    between atoms: _493  and  _494
REMARK  192  A    between atoms: _493  and  _496
REMARK  193  A    between atoms: _496  and  _497
REMARK  194  A    between atoms: _500  and  _502
REMARK  195  A    between atoms: _502  and  _503
REMARK  196  A    between atoms: _502  and  _505
REMARK  197  A    between atoms: _505  and  _506
REMARK  198  A    between atoms: _511  and  _512
REMARK  199  A    between atoms: _514  and  _516
REMARK  200  A    between atoms: _516  and  _517
REMARK  201  A    between atoms: _516  and  _519
REMARK  202  A    between atoms: _519  and  _520
REMARK  203  A    between atoms: _522  and  _524
REMARK  204  A    between atoms: _524  and  _525
REMARK  205  A    between atoms: _524  and  _527
REMARK  206  A    between atoms: _527  and  _528
REMARK  207  A    between atoms: _534  and  _536
REMARK  208  A    between atoms: _536  and  _537
REMARK  209  A    between atoms: _536  and  _539
REMARK  210  A    between atoms: _539  and  _540
REMARK  211  A    between atoms: _543  and  _545
REMARK  212  A    between atoms: _545  and  _546
REMARK  213  A    between atoms: _545  and  _548
REMARK  214  A    between atoms: _548  and  _549
REMARK  215  A    between atoms: _551  and  _553
REMARK  216  A    between atoms: _553  and  _554
REMARK  217  A    between atoms: _553  and  _556
REMARK  218  A    between atoms: _556  and  _557
REMARK  219  A    between atoms: _562  and  _564
REMARK  220  A    between atoms: _564  and  _565
REMARK  221  A    between atoms: _564  and  _567
REMARK  222  A    between atoms: _567  and  _568
REMARK  223  A    between atoms: _573  and  _575
REMARK  224  A    between atoms: _575  and  _576
REMARK  225  A    between atoms: _575  and  _578
REMARK  226  A    between atoms: _578  and  _579
REMARK  227  A    between atoms: _582  and  _584
REMARK  228  A    between atoms: _584  and  _585
REMARK  229  A    between atoms: _588  and  _590
REMARK  230  A    between atoms: _590  and  _591
REMARK  231  A    between atoms: _590  and  _593
REMARK  232  A    between atoms: _593  and  _594
REMARK  233  A    between atoms: _599  and  _600
REMARK  234  A    between atoms: _602  and  _604
REMARK  235  A    between atoms: _604  and  _605
REMARK  236  A    between atoms: _604  and  _607
REMARK  237  A    between atoms: _607  and  _608
REMARK  238  A    between atoms: _613  and  _614
REMARK  239  A    between atoms: _616  and  _618
REMARK  240  A    between atoms: _618  and  _619
REMARK  241  A    between atoms: _618  and  _621
REMARK  242  A    between atoms: _624  and  _626
REMARK  243  A    between atoms: _626  and  _627
REMARK  244  A    between atoms: _626  and  _629
REMARK  245  A    between atoms: _629  and  _630
REMARK  246  A    between atoms: _635  and  _637
REMARK  247  A    between atoms: _637  and  _638
REMARK  248  A    between atoms: _641  and  _643
REMARK  249  A    between atoms: _643  and  _644
REMARK  250  A    between atoms: _643  and  _646
REMARK  251  A    between atoms: _646  and  _647
REMARK  252  A    between atoms: _647  and  _648
REMARK  253  A    between atoms: _648  and  _649
REMARK  254  A    between atoms: _658  and  _660
REMARK  255  A    between atoms: _660  and  _661
REMARK  256  A    between atoms: _660  and  _663
REMARK  257  A    between atoms: _663  and  _664
REMARK  258  A    between atoms: _667  and  _669
REMARK  259  A    between atoms: _669  and  _670
REMARK  260  A    between atoms: _669  and  _672
REMARK  261  A    between atoms: _672  and  _673
REMARK  262  A    between atoms: _676  and  _678
REMARK  263  A    between atoms: _678  and  _679
REMARK  264  A    between atoms: _678  and  _681
REMARK  265  A    between atoms: _681  and  _682
REMARK  266  A    between atoms: _687  and  _689
REMARK  267  A    between atoms: _689  and  _690
REMARK  268  A    between atoms: _689  and  _692
REMARK  269  A    between atoms: _692  and  _693
REMARK                            x       y       z     vdW  Elec       q    Type
REMARK                         _______ _______ _______ _____ _____    ______ ____
ROOT
ATOM      1  O   UNL     1      46.501  34.656  28.706  0.00  0.00    +0.000 OA
ATOM      2  O   UNL     1      45.111  34.576  29.089  0.00  0.00    +0.000 OA
ENDROOT
TORSDOF 0
REMARK  Name = ../refined-set-2016/1b7h/1b7h_pocket.pdb
REMARK  269 active torsions:
REMARK  status: ('A' for Active; 'I' for Inactive)
REMARK    1  A    between atoms: _1  and  _3
REMARK    2  A    between atoms: _3  and  _4
REMARK    3  A    between atoms: _6  and  _8
REMARK    4  A    between atoms: _8  and  _9
REMARK    5  A    between atoms: _8  and  _11
REMARK    6  A    between atoms: _11  and  _12
REMARK    7  A    between atoms: _14  and  _16
REMARK    8  A    between atoms: _16  and  _17
REMARK    9  A    between atoms: _16  and  _19
REMARK   10  A    between atoms: _19  and  _20
REMARK   11  A    between atoms: _20  and  _21
REMARK   12  A    between atoms: _26  and  _28
REMARK   13  A    between atoms: _28  and  _29
REMARK   14  A    between atoms: _28  and  _31
REMARK   15  A    between atoms: _31  and  _32
REMARK   16  A    between atoms: _35  and  _37
REMARK   17  A    between atoms: _37  and  _38
REMARK   18  A    between atoms: _37  and  _40
REMARK   19  A    between atoms: _40  and  _41
REMARK   20  A    between atoms: _41  and  _42
REMARK   21  A    between atoms: _45  and  _47
REMARK   22  A    between atoms: _47  and  _48
REMARK   23  A    between atoms: _50  and  _52
REMARK   24  A    between atoms: _52  and  _53
REMARK   25  A    between atoms: _52  and  _55
REMARK   26  A    between atoms: _59  and  _60
REMARK   27  A    between atoms: _65  and  _67
REMARK   28  A    between atoms: _67  and  _68
REMARK   29  A    between atoms: _67  and  _70
REMARK   30  A    between atoms: _70  and  _71
REMARK   31  A    between atoms: _71  and  _72
REMARK   32  A    between atoms: _75  and  _77
REMARK   33  A    between atoms: _77  and  _78
REMARK   34  A    between atoms: _77  and  _80
REMARK   35  A    between atoms: _80  and  _81
REMARK   36  A    between atoms: _83  and  _85
REMARK   37  A    between atoms: _85  and  _86
REMARK   38  A    between atoms: _85  and  _88
REMARK   39  A    between atoms: _88  and  _89
REMARK   40  A    between atoms: _94  and  _96
REMARK   41  A    between atoms: _96  and  _97
REMARK   42  A    between atoms: _96  and  _99
REMARK   43  A    between atoms: _99  and  _100
REMARK   44  A    between atoms: _100  and  _101
REMARK   45  A    between atoms: _101  and  _102
REMARK   46  A    between atoms: _112  and  _113
REMARK   47  A    between atoms: _118  and  _120
REMARK   48  A    between atoms: _120  and  _121
REMARK   49  A    between atoms: _120  and  _123
REMARK   50  A    between atoms: _123  and  _124
REMARK   51  A    between atoms: _129  and  _130
REMARK   52  A    between atoms: _132  and  _134
REMARK   53  A    between atoms: _134  and  _135
REMARK   54  A    between atoms: _134  and  _137
REMARK   55  A    between atoms: _137  and  _138
REMARK   56  A    between atoms: _143  and  _144
REMARK   57  A    between atoms: _146  and  _148
REMARK   58  A    between atoms: _148  and  _149
REMARK   59  A    between atoms: _148  and  _151
REMARK   60  A    between atoms: _154  and  _156
REMARK   61  A    between atoms: _156  and  _157
REMARK   62  A    between atoms: _156  and  _159
REMARK   63  A    between atoms: _159  and  _160
REMARK   64  A    between atoms: _166  and  _167
REMARK   65  A    between atoms: _172  and  _174
REMARK   66  A    between atoms: _174  and  _175
REMARK   67  A    between atoms: _174  and  _177
REMARK   68  A    between atoms: _177  and  _178
REMARK   69  A    between atoms: _180  and  _182
REMARK   70  A    between atoms: _182  and  _183
REMARK   71  A    between atoms: _182  and  _185
REMARK   72  A    between atoms: _185  and  _186
REMARK   73  A    between atoms: _191  and  _192
REMARK   74  A    between atoms: _194  and  _196
REMARK   75  A    between atoms: _196  and  _197
REMARK   76  A    between atoms: _196  and  _199
REMARK   77  A    between atoms: _199  and  _200
REMARK   78  A    between atoms: _205  and  _207
REMARK   79  A    between atoms: _207  and  _208
REMARK   80  A    between atoms: _207  and  _210
REMARK   81  A    between atoms: _210  and  _211
REMARK   82  A    between atoms: _216  and  _218
REMARK   83  A    between atoms: _218  and  _219
REMARK   84  A    between atoms: _218  and  _221
REMARK   85  A    between atoms: _221  and  _222
REMARK   86  A    between atoms: _222  and  _223
REMARK   87  A    between atoms: _225  and  _227
REMARK   88  A    between atoms: _227  and  _228
REMARK   89  A    between atoms: _227  and  _230
REMARK   90  A    between atoms: _230  and  _231
REMARK   91  A    between atoms: _236  and  _237
REMARK   92  A    between atoms: _239  and  _241
REMARK   93  A    between atoms: _241  and  _242
REMARK   94  A    between atoms: _241  and  _244
REMARK   95  A    between atoms: _244  and  _245
REMARK   96  A    between atoms: _248  and  _250
REMARK   97  A    between atoms: _250  and  _251
REMARK   98  A    between atoms: _250  and  _253
REMARK   99  A    between atoms: _253  and  _254
REMARK  100  A    between atoms: _254  and  _484
REMARK  101  A    between atoms: _255  and  _257
REMARK  102  A    between atoms: _257  and  _258
REMARK  103  A    between atoms: _257  and  _260
REMARK  104  A    between atoms: _260  and  _261
REMARK  105  A    between atoms: _264  and  _266
REMARK  106  A    between atoms: _266  and  _267
REMARK  107  A    between atoms: _266  and  _269
REMARK  108  A    between atoms: _269  and  _270
REMARK  109  A    between atoms: _275  and  _276
REMARK  110  A    between atoms: _278  and  _280
REMARK  111  A    between atoms: _280  and  _281
REMARK  112  A    between atoms: _280  and  _283
REMARK  113  A    between atoms: _283  and  _284
REMARK  114  A    between atoms: _289  and  _290
REMARK  115  A    between atoms: _292  and  _294
REMARK  116  A    between atoms: _294  and  _295
REMARK  117  A    between atoms: _294  and  _297
REMARK  118  A    between atoms: _297  and  _298
REMARK  119  A    between atoms: _298  and  _299
REMARK  120  A    between atoms: _302  and  _304
REMARK  121  A    between atoms: _304  and  _305
REMARK  122  A    between atoms: _304  and  _307
REMARK  123  A    between atoms: _307  and  _308
REMARK  124  A    between atoms: _308  and  _309
REMARK  125  A    between atoms: _309  and  _310
REMARK  126  A    between atoms: _310  and  _311
REMARK  127  A    between atoms: _315  and  _317
REMARK  128  A    between atoms: _317  and  _318
REMARK  129  A    between atoms: _317  and  _320
REMARK  130  A    between atoms: _320  and  _321
REMARK  131  A    between atoms: _326  and  _327
REMARK  132  A    between atoms: _329  and  _331
REMARK  133  A    between atoms: _331  and  _332
REMARK  134  A    between atoms: _331  and  _334
REMARK  135  A    between atoms: _334  and  _335
REMARK  136  A    between atoms: _340  and  _342
REMARK  137  A    between atoms: _342  and  _343
REMARK  138  A    between atoms: _342  and  _345
REMARK  139  A    between atoms: _345  and  _346
REMARK  140  A    between atoms: _349  and  _351
REMARK  141  A    between atoms: _351  and  _352
REMARK  142  A    between atoms: _351  and  _354
REMARK  143  A    between atoms: _354  and  _355
REMARK  144  A    between atoms: _360  and  _362
REMARK  145  A    between atoms: _362  and  _363
REMARK  146  A    between atoms: _362  and  _365
REMARK  147  A    between atoms: _365  and  _366
REMARK  148  A    between atoms: _376  and  _378
REMARK  149  A    between atoms: _378  and  _379
REMARK  150  A    between atoms: _378  and  _381
REMARK  151  A    between atoms: _381  and  _382
REMARK  152  A    between atoms: _388  and  _390
REMARK  153  A    between atoms: _390  and  _391
REMARK  154  A    between atoms: _390  and  _393
REMARK  155  A    between atoms: _393  and  _394
REMARK  156  A    between atoms: _397  and  _399
REMARK  157  A    between atoms: _399  and  _400
REMARK  158  A    between atoms: _399  and  _402
REMARK  159  A    between atoms: _402  and  _403
REMARK  160  A    between atoms: _406  and  _408
REMARK  161  A    between atoms: _408  and  _409
REMARK  162  A    between atoms: _408  and  _411
REMARK  163  A    between atoms: _411  and  _412
REMARK  164  A    between atoms: _412  and  _413
REMARK  165  A    between atoms: _413  and  _414
REMARK  166  A    between atoms: _423  and  _425
REMARK  167  A    between atoms: _425  and  _426
REMARK  168  A    between atoms: _425  and  _428
REMARK  169  A    between atoms: _428  and  _429
REMARK  170  A    between atoms: _434  and  _436
REMARK  171  A    between atoms: _436  and  _437
REMARK  172  A    between atoms: _436  and  _439
REMARK  173  A    between atoms: _439  and  _440
REMARK  174  A    between atoms: _440  and  _441
REMARK  175  A    between atoms: _441  and  _442
REMARK  176  A    between atoms: _451  and  _453
REMARK  177  A    between atoms: _453  and  _454
REMARK  178  A    between atoms: _457  and  _459
REMARK  179  A    between atoms: _459  and  _460
REMARK  180  A    between atoms: _462  and  _464
REMARK  181  A    between atoms: _464  and  _465
REMARK  182  A    between atoms: _464  and  _467
REMARK  183  A    between atoms: _467  and  _468
REMARK  184  A    between atoms: _478  and  _480
REMARK  185  A    between atoms: _480  and  _481
REMARK  186  A    between atoms: _480  and  _483
REMARK  187  A    between atoms: _483  and  _484
REMARK  188  A    between atoms: _485  and  _487
REMARK  189  A    between atoms: _487  and  _488
REMARK  190  A    between atoms: _491  and  _493
REMARK  191  A    between atoms: _493  and  _494
REMARK  192  A    between atoms: _493  and  _496
REMARK  193  A    between atoms: _496  and  _497
REMARK  194  A    between atoms: _500  and  _502
REMARK  195  A    between atoms: _502  and  _503
REMARK  196  A    between atoms: _502  and  _505
REMARK  197  A    between atoms: _505  and  _506
REMARK  198  A    between atoms: _511  and  _512
REMARK  199  A    between atoms: _514  and  _516
REMARK  200  A    between atoms: _516  and  _517
REMARK  201  A    between atoms: _516  and  _519
REMARK  202  A    between atoms: _519  and  _520
REMARK  203  A    between atoms: _522  and  _524
REMARK  204  A    between atoms: _524  and  _525
REMARK  205  A    between atoms: _524  and  _527
REMARK  206  A    between atoms: _527  and  _528
REMARK  207  A    between atoms: _534  and  _536
REMARK  208  A    between atoms: _536  and  _537
REMARK  209  A    between atoms: _536  and  _539
REMARK  210  A    between atoms: _539  and  _540
REMARK  211  A    between atoms: _543  and  _545
REMARK  212  A    between atoms: _545  and  _546
REMARK  213  A    between atoms: _545  and  _548
REMARK  214  A    between atoms: _548  and  _549
REMARK  215  A    between atoms: _551  and  _553
REMARK  216  A    between atoms: _553  and  _554
REMARK  217  A    between atoms: _553  and  _556
REMARK  218  A    between atoms: _556  and  _557
REMARK  219  A    between atoms: _562  and  _564
REMARK  220  A    between atoms: _564  and  _565
REMARK  221  A    between atoms: _564  and  _567
REMARK  222  A    between atoms: _567  and  _568
REMARK  223  A    between atoms: _573  and  _575
REMARK  224  A    between atoms: _575  and  _576
REMARK  225  A    between atoms: _575  and  _578
REMARK  226  A    between atoms: _578  and  _579
REMARK  227  A    between atoms: _582  and  _584
REMARK  228  A    between atoms: _584  and  _585
REMARK  229  A    between atoms: _588  and  _590
REMARK  230  A    between atoms: _590  and  _591
REMARK  231  A    between atoms: _590  and  _593
REMARK  232  A    between atoms: _593  and  _594
REMARK  233  A    between atoms: _599  and  _600
REMARK  234  A    between atoms: _602  and  _604
REMARK  235  A    between atoms: _604  and  _605
REMARK  236  A    between atoms: _604  and  _607
REMARK  237  A    between atoms: _607  and  _608
REMARK  238  A    between atoms: _613  and  _614
REMARK  239  A    between atoms: _616  and  _618
REMARK  240  A    between atoms: _618  and  _619
REMARK  241  A    between atoms: _618  and  _621
REMARK  242  A    between atoms: _624  and  _626
REMARK  243  A    between atoms: _626  and  _627
REMARK  244  A    between atoms: _626  and  _629
REMARK  245  A    between atoms: _629  and  _630
REMARK  246  A    between atoms: _635  and  _637
REMARK  247  A    between atoms: _637  and  _638
REMARK  248  A    between atoms: _641  and  _643
REMARK  249  A    between atoms: _643  and  _644
REMARK  250  A    between atoms: _643  and  _646
REMARK  251  A    between atoms: _646  and  _647
REMARK  252  A    between atoms: _647  and  _648
REMARK  253  A    between atoms: _648  and  _649
REMARK  254  A    between atoms: _658  and  _660
REMARK  255  A    between atoms: _660  and  _661
REMARK  256  A    between atoms: _660  and  _663
REMARK  257  A    between atoms: _663  and  _664
REMARK  258  A    between atoms: _667  and  _669
REMARK  259  A    between atoms: _669  and  _670
REMARK  260  A    between atoms: _669  and  _672
REMARK  261  A    between atoms: _672  and  _673
REMARK  262  A    between atoms: _676  and  _678
REMARK  263  A    between atoms: _678  and  _679
REMARK  264  A    between atoms: _678  and  _681
REMARK  265  A    between atoms: _681  and  _682
REMARK  266  A    between atoms: _687  and  _689
REMARK  267  A    between atoms: _689  and  _690
REMARK  268  A    between atoms: _689  and  _692
REMARK  269  A    between atoms: _692  and  _693
REMARK                            x       y       z     vdW  Elec       q    Type
REMARK                         _______ _______ _______ _____ _____    ______ ____
ROOT
ATOM      1  O   HOH     1      40.643  37.546  28.473  0.00  0.00    +0.000 OA
ENDROOT
TORSDOF 0
REMARK  Name = ../refined-set-2016/1b7h/1b7h_pocket.pdb
REMARK  269 active torsions:
REMARK  status: ('A' for Active; 'I' for Inactive)
REMARK    1  A    between atoms: _1  and  _3
REMARK    2  A    between atoms: _3  and  _4
REMARK    3  A    between atoms: _6  and  _8
REMARK    4  A    between atoms: _8  and  _9
REMARK    5  A    between atoms: _8  and  _11
REMARK    6  A    between atoms: _11  and  _12
REMARK    7  A    between atoms: _14  and  _16
REMARK    8  A    between atoms: _16  and  _17
REMARK    9  A    between atoms: _16  and  _19
REMARK   10  A    between atoms: _19  and  _20
REMARK   11  A    between atoms: _20  and  _21
REMARK   12  A    between atoms: _26  and  _28
REMARK   13  A    between atoms: _28  and  _29
REMARK   14  A    between atoms: _28  and  _31
REMARK   15  A    between atoms: _31  and  _32
REMARK   16  A    between atoms: _35  and  _37
REMARK   17  A    between atoms: _37  and  _38
REMARK   18  A    between atoms: _37  and  _40
REMARK   19  A    between atoms: _40  and  _41
REMARK   20  A    between atoms: _41  and  _42
REMARK   21  A    between atoms: _45  and  _47
REMARK   22  A    between atoms: _47  and  _48
REMARK   23  A    between atoms: _50  and  _52
REMARK   24  A    between atoms: _52  and  _53
REMARK   25  A    between atoms: _52  and  _55
REMARK   26  A    between atoms: _59  and  _60
REMARK   27  A    between atoms: _65  and  _67
REMARK   28  A    between atoms: _67  and  _68
REMARK   29  A    between atoms: _67  and  _70
REMARK   30  A    between atoms: _70  and  _71
REMARK   31  A    between atoms: _71  and  _72
REMARK   32  A    between atoms: _75  and  _77
REMARK   33  A    between atoms: _77  and  _78
REMARK   34  A    between atoms: _77  and  _80
REMARK   35  A    between atoms: _80  and  _81
REMARK   36  A    between atoms: _83  and  _85
REMARK   37  A    between atoms: _85  and  _86
REMARK   38  A    between atoms: _85  and  _88
REMARK   39  A    between atoms: _88  and  _89
REMARK   40  A    between atoms: _94  and  _96
REMARK   41  A    between atoms: _96  and  _97
REMARK   42  A    between atoms: _96  and  _99
REMARK   43  A    between atoms: _99  and  _100
REMARK   44  A    between atoms: _100  and  _101
REMARK   45  A    between atoms: _101  and  _102
REMARK   46  A    between atoms: _112  and  _113
REMARK   47  A    between atoms: _118  and  _120
REMARK   48  A    between atoms: _120  and  _121
REMARK   49  A    between atoms: _120  and  _123
REMARK   50  A    between atoms: _123  and  _124
REMARK   51  A    between atoms: _129  and  _130
REMARK   52  A    between atoms: _132  and  _134
REMARK   53  A    between atoms: _134  and  _135
REMARK   54  A    between atoms: _134  and  _137
REMARK   55  A    between atoms: _137  and  _138
REMARK   56  A    between atoms: _143  and  _144
REMARK   57  A    between atoms: _146  and  _148
REMARK   58  A    between atoms: _148  and  _149
REMARK   59  A    between atoms: _148  and  _151
REMARK   60  A    between atoms: _154  and  _156
REMARK   61  A    between atoms: _156  and  _157
REMARK   62  A    between atoms: _156  and  _159
REMARK   63  A    between atoms: _159  and  _160
REMARK   64  A    between atoms: _166  and  _167
REMARK   65  A    between atoms: _172  and  _174
REMARK   66  A    between atoms: _174  and  _175
REMARK   67  A    between atoms: _174  and  _177
REMARK   68  A    between atoms: _177  and  _178
REMARK   69  A    between atoms: _180  and  _182
REMARK   70  A    between atoms: _182  and  _183
REMARK   71  A    between atoms: _182  and  _185
REMARK   72  A    between atoms: _185  and  _186
REMARK   73  A    between atoms: _191  and  _192
REMARK   74  A    between atoms: _194  and  _196
REMARK   75  A    between atoms: _196  and  _197
REMARK   76  A    between atoms: _196  and  _199
REMARK   77  A    between atoms: _199  and  _200
REMARK   78  A    between atoms: _205  and  _207
REMARK   79  A    between atoms: _207  and  _208
REMARK   80  A    between atoms: _207  and  _210
REMARK   81  A    between atoms: _210  and  _211
REMARK   82  A    between atoms: _216  and  _218
REMARK   83  A    between atoms: _218  and  _219
REMARK   84  A    between atoms: _218  and  _221
REMARK   85  A    between atoms: _221  and  _222
REMARK   86  A    between atoms: _222  and  _223
REMARK   87  A    between atoms: _225  and  _227
REMARK   88  A    between atoms: _227  and  _228
REMARK   89  A    between atoms: _227  and  _230
REMARK   90  A    between atoms: _230  and  _231
REMARK   91  A    between atoms: _236  and  _237
REMARK   92  A    between atoms: _239  and  _241
REMARK   93  A    between atoms: _241  and  _242
REMARK   94  A    between atoms: _241  and  _244
REMARK   95  A    between atoms: _244  and  _245
REMARK   96  A    between atoms: _248  and  _250
REMARK   97  A    between atoms: _250  and  _251
REMARK   98  A    between atoms: _250  and  _253
REMARK   99  A    between atoms: _253  and  _254
REMARK  100  A    between atoms: _254  and  _484
REMARK  101  A    between atoms: _255  and  _257
REMARK  102  A    between atoms: _257  and  _258
REMARK  103  A    between atoms: _257  and  _260
REMARK  104  A    between atoms: _260  and  _261
REMARK  105  A    between atoms: _264  and  _266
REMARK  106  A    between atoms: _266  and  _267
REMARK  107  A    between atoms: _266  and  _269
REMARK  108  A    between atoms: _269  and  _270
REMARK  109  A    between atoms: _275  and  _276
REMARK  110  A    between atoms: _278  and  _280
REMARK  111  A    between atoms: _280  and  _281
REMARK  112  A    between atoms: _280  and  _283
REMARK  113  A    between atoms: _283  and  _284
REMARK  114  A    between atoms: _289  and  _290
REMARK  115  A    between atoms: _292  and  _294
REMARK  116  A    between atoms: _294  and  _295
REMARK  117  A    between atoms: _294  and  _297
REMARK  118  A    between atoms: _297  and  _298
REMARK  119  A    between atoms: _298  and  _299
REMARK  120  A    between atoms: _302  and  _304
REMARK  121  A    between atoms: _304  and  _305
REMARK  122  A    between atoms: _304  and  _307
REMARK  123  A    between atoms: _307  and  _308
REMARK  124  A    between atoms: _308  and  _309
REMARK  125  A    between atoms: _309  and  _310
REMARK  126  A    between atoms: _310  and  _311
REMARK  127  A    between atoms: _315  and  _317
REMARK  128  A    between atoms: _317  and  _318
REMARK  129  A    between atoms: _317  and  _320
REMARK  130  A    between atoms: _320  and  _321
REMARK  131  A    between atoms: _326  and  _327
REMARK  132  A    between atoms: _329  and  _331
REMARK  133  A    between atoms: _331  and  _332
REMARK  134  A    between atoms: _331  and  _334
REMARK  135  A    between atoms: _334  and  _335
REMARK  136  A    between atoms: _340  and  _342
REMARK  137  A    between atoms: _342  and  _343
REMARK  138  A    between atoms: _342  and  _345
REMARK  139  A    between atoms: _345  and  _346
REMARK  140  A    between atoms: _349  and  _351
REMARK  141  A    between atoms: _351  and  _352
REMARK  142  A    between atoms: _351  and  _354
REMARK  143  A    between atoms: _354  and  _355
REMARK  144  A    between atoms: _360  and  _362
REMARK  145  A    between atoms: _362  and  _363
REMARK  146  A    between atoms: _362  and  _365
REMARK  147  A    between atoms: _365  and  _366
REMARK  148  A    between atoms: _376  and  _378
REMARK  149  A    between atoms: _378  and  _379
REMARK  150  A    between atoms: _378  and  _381
REMARK  151  A    between atoms: _381  and  _382
REMARK  152  A    between atoms: _388  and  _390
REMARK  153  A    between atoms: _390  and  _391
REMARK  154  A    between atoms: _390  and  _393
REMARK  155  A    between atoms: _393  and  _394
REMARK  156  A    between atoms: _397  and  _399
REMARK  157  A    between atoms: _399  and  _400
REMARK  158  A    between atoms: _399  and  _402
REMARK  159  A    between atoms: _402  and  _403
REMARK  160  A    between atoms: _406  and  _408
REMARK  161  A    between atoms: _408  and  _409
REMARK  162  A    between atoms: _408  and  _411
REMARK  163  A    between atoms: _411  and  _412
REMARK  164  A    between atoms: _412  and  _413
REMARK  165  A    between atoms: _413  and  _414
REMARK  166  A    between atoms: _423  and  _425
REMARK  167  A    between atoms: _425  and  _426
REMARK  168  A    between atoms: _425  and  _428
REMARK  169  A    between atoms: _428  and  _429
REMARK  170  A    between atoms: _434  and  _436
REMARK  171  A    between atoms: _436  and  _437
REMARK  172  A    between atoms: _436  and  _439
REMARK  173  A    between atoms: _439  and  _440
REMARK  174  A    between atoms: _440  and  _441
REMARK  175  A    between atoms: _441  and  _442
REMARK  176  A    between atoms: _451  and  _453
REMARK  177  A    between atoms: _453  and  _454
REMARK  178  A    between atoms: _457  and  _459
REMARK  179  A    between atoms: _459  and  _460
REMARK  180  A    between atoms: _462  and  _464
REMARK  181  A    between atoms: _464  and  _465
REMARK  182  A    between atoms: _464  and  _467
REMARK  183  A    between atoms: _467  and  _468
REMARK  184  A    between atoms: _478  and  _480
REMARK  185  A    between atoms: _480  and  _481
REMARK  186  A    between atoms: _480  and  _483
REMARK  187  A    between atoms: _483  and  _484
REMARK  188  A    between atoms: _485  and  _487
REMARK  189  A    between atoms: _487  and  _488
REMARK  190  A    between atoms: _491  and  _493
REMARK  191  A    between atoms: _493  and  _494
REMARK  192  A    between atoms: _493  and  _496
REMARK  193  A    between atoms: _496  and  _497
REMARK  194  A    between atoms: _500  and  _502
REMARK  195  A    between atoms: _502  and  _503
REMARK  196  A    between atoms: _502  and  _505
REMARK  197  A    between atoms: _505  and  _506
REMARK  198  A    between atoms: _511  and  _512
REMARK  199  A    between atoms: _514  and  _516
REMARK  200  A    between atoms: _516  and  _517
REMARK  201  A    between atoms: _516  and  _519
REMARK  202  A    between atoms: _519  and  _520
REMARK  203  A    between atoms: _522  and  _524
REMARK  204  A    between atoms: _524  and  _525
REMARK  205  A    between atoms: _524  and  _527
REMARK  206  A    between atoms: _527  and  _528
REMARK  207  A    between atoms: _534  and  _536
REMARK  208  A    between atoms: _536  and  _537
REMARK  209  A    between atoms: _536  and  _539
REMARK  210  A    between atoms: _539  and  _540
REMARK  211  A    between atoms: _543  and  _545
REMARK  212  A    between atoms: _545  and  _546
REMARK  213  A    between atoms: _545  and  _548
REMARK  214  A    between atoms: _548  and  _549
REMARK  215  A    between atoms: _551  and  _553
REMARK  216  A    between atoms: _553  and  _554
REMARK  217  A    between atoms: _553  and  _556
REMARK  218  A    between atoms: _556  and  _557
REMARK  219  A    between atoms: _562  and  _564
REMARK  220  A    between atoms: _564  and  _565
REMARK  221  A    between atoms: _564  and  _567
REMARK  222  A    between atoms: _567  and  _568
REMARK  223  A    between atoms: _573  and  _575
REMARK  224  A    between atoms: _575  and  _576
REMARK  225  A    between atoms: _575  and  _578
REMARK  226  A    between atoms: _578  and  _579
REMARK  227  A    between atoms: _582  and  _584
REMARK  228  A    between atoms: _584  and  _585
REMARK  229  A    between atoms: _588  and  _590
REMARK  230  A    between atoms: _590  and  _591
REMARK  231  A    between atoms: _590  and  _593
REMARK  232  A    between atoms: _593  and  _594
REMARK  233  A    between atoms: _599  and  _600
REMARK  234  A    between atoms: _602  and  _604
REMARK  235  A    between atoms: _604  and  _605
REMARK  236  A    between atoms: _604  and  _607
REMARK  237  A    between atoms: _607  and  _608
REMARK  238  A    between atoms: _613  and  _614
REMARK  239  A    between atoms: _616  and  _618
REMARK  240  A    between atoms: _618  and  _619
REMARK  241  A    between atoms: _618  and  _621
REMARK  242  A    between atoms: _624  and  _626
REMARK  243  A    between atoms: _626  and  _627
REMARK  244  A    between atoms: _626  and  _629
REMARK  245  A    between atoms: _629  and  _630
REMARK  246  A    between atoms: _635  and  _637
REMARK  247  A    between atoms: _637  and  _638
REMARK  248  A    between atoms: _641  and  _643
REMARK  249  A    between atoms: _643  and  _644
REMARK  250  A    between atoms: _643  and  _646
REMARK  251  A    between atoms: _646  and  _647
REMARK  252  A    between atoms: _647  and  _648
REMARK  253  A    between atoms: _648  and  _649
REMARK  254  A    between atoms: _658  and  _660
REMARK  255  A    between atoms: _660  and  _661
REMARK  256  A    between atoms: _660  and  _663
REMARK  257  A    between atoms: _663  and  _664
REMARK  258  A    between atoms: _667  and  _669
REMARK  259  A    between atoms: _669  and  _670
REMARK  260  A    between atoms: _669  and  _672
REMARK  261  A    between atoms: _672  and  _673
REMARK  262  A    between atoms: _676  and  _678
REMARK  263  A    between atoms: _678  and  _679
REMARK  264  A    between atoms: _678  and  _681
REMARK  265  A    between atoms: _681  and  _682
REMARK  266  A    between atoms: _687  and  _689
REMARK  267  A    between atoms: _689  and  _690
REMARK  268  A    between atoms: _689  and  _692
REMARK  269  A    between atoms: _692  and  _693
REMARK                            x       y       z     vdW  Elec       q    Type
REMARK                         _______ _______ _______ _____ _____    ______ ____
ROOT
ATOM      1  O   HOH     1      35.692  41.673  25.639  0.00  0.00    +0.000 OA
ENDROOT
TORSDOF 0
REMARK  Name = ../refined-set-2016/1b7h/1b7h_pocket.pdb
REMARK  269 active torsions:
REMARK  status: ('A' for Active; 'I' for Inactive)
REMARK    1  A    between atoms: _1  and  _3
REMARK    2  A    between atoms: _3  and  _4
REMARK    3  A    between atoms: _6  and  _8
REMARK    4  A    between atoms: _8  and  _9
REMARK    5  A    between atoms: _8  and  _11
REMARK    6  A    between atoms: _11  and  _12
REMARK    7  A    between atoms: _14  and  _16
REMARK    8  A    between atoms: _16  and  _17
REMARK    9  A    between atoms: _16  and  _19
REMARK   10  A    between atoms: _19  and  _20
REMARK   11  A    between atoms: _20  and  _21
REMARK   12  A    between atoms: _26  and  _28
REMARK   13  A    between atoms: _28  and  _29
REMARK   14  A    between atoms: _28  and  _31
REMARK   15  A    between atoms: _31  and  _32
REMARK   16  A    between atoms: _35  and  _37
REMARK   17  A    between atoms: _37  and  _38
REMARK   18  A    between atoms: _37  and  _40
REMARK   19  A    between atoms: _40  and  _41
REMARK   20  A    between atoms: _41  and  _42
REMARK   21  A    between atoms: _45  and  _47
REMARK   22  A    between atoms: _47  and  _48
REMARK   23  A    between atoms: _50  and  _52
REMARK   24  A    between atoms: _52  and  _53
REMARK   25  A    between atoms: _52  and  _55
REMARK   26  A    between atoms: _59  and  _60
REMARK   27  A    between atoms: _65  and  _67
REMARK   28  A    between atoms: _67  and  _68
REMARK   29  A    between atoms: _67  and  _70
REMARK   30  A    between atoms: _70  and  _71
REMARK   31  A    between atoms: _71  and  _72
REMARK   32  A    between atoms: _75  and  _77
REMARK   33  A    between atoms: _77  and  _78
REMARK   34  A    between atoms: _77  and  _80
REMARK   35  A    between atoms: _80  and  _81
REMARK   36  A    between atoms: _83  and  _85
REMARK   37  A    between atoms: _85  and  _86
REMARK   38  A    between atoms: _85  and  _88
REMARK   39  A    between atoms: _88  and  _89
REMARK   40  A    between atoms: _94  and  _96
REMARK   41  A    between atoms: _96  and  _97
REMARK   42  A    between atoms: _96  and  _99
REMARK   43  A    between atoms: _99  and  _100
REMARK   44  A    between atoms: _100  and  _101
REMARK   45  A    between atoms: _101  and  _102
REMARK   46  A    between atoms: _112  and  _113
REMARK   47  A    between atoms: _118  and  _120
REMARK   48  A    between atoms: _120  and  _121
REMARK   49  A    between atoms: _120  and  _123
REMARK   50  A    between atoms: _123  and  _124
REMARK   51  A    between atoms: _129  and  _130
REMARK   52  A    between atoms: _132  and  _134
REMARK   53  A    between atoms: _134  and  _135
REMARK   54  A    between atoms: _134  and  _137
REMARK   55  A    between atoms: _137  and  _138
REMARK   56  A    between atoms: _143  and  _144
REMARK   57  A    between atoms: _146  and  _148
REMARK   58  A    between atoms: _148  and  _149
REMARK   59  A    between atoms: _148  and  _151
REMARK   60  A    between atoms: _154  and  _156
REMARK   61  A    between atoms: _156  and  _157
REMARK   62  A    between atoms: _156  and  _159
REMARK   63  A    between atoms: _159  and  _160
REMARK   64  A    between atoms: _166  and  _167
REMARK   65  A    between atoms: _172  and  _174
REMARK   66  A    between atoms: _174  and  _175
REMARK   67  A    between atoms: _174  and  _177
REMARK   68  A    between atoms: _177  and  _178
REMARK   69  A    between atoms: _180  and  _182
REMARK   70  A    between atoms: _182  and  _183
REMARK   71  A    between atoms: _182  and  _185
REMARK   72  A    between atoms: _185  and  _186
REMARK   73  A    between atoms: _191  and  _192
REMARK   74  A    between atoms: _194  and  _196
REMARK   75  A    between atoms: _196  and  _197
REMARK   76  A    between atoms: _196  and  _199
REMARK   77  A    between atoms: _199  and  _200
REMARK   78  A    between atoms: _205  and  _207
REMARK   79  A    between atoms: _207  and  _208
REMARK   80  A    between atoms: _207  and  _210
REMARK   81  A    between atoms: _210  and  _211
REMARK   82  A    between atoms: _216  and  _218
REMARK   83  A    between atoms: _218  and  _219
REMARK   84  A    between atoms: _218  and  _221
REMARK   85  A    between atoms: _221  and  _222
REMARK   86  A    between atoms: _222  and  _223
REMARK   87  A    between atoms: _225  and  _227
REMARK   88  A    between atoms: _227  and  _228
REMARK   89  A    between atoms: _227  and  _230
REMARK   90  A    between atoms: _230  and  _231
REMARK   91  A    between atoms: _236  and  _237
REMARK   92  A    between atoms: _239  and  _241
REMARK   93  A    between atoms: _241  and  _242
REMARK   94  A    between atoms: _241  and  _244
REMARK   95  A    between atoms: _244  and  _245
REMARK   96  A    between atoms: _248  and  _250
REMARK   97  A    between atoms: _250  and  _251
REMARK   98  A    between atoms: _250  and  _253
REMARK   99  A    between atoms: _253  and  _254
REMARK  100  A    between atoms: _254  and  _484
REMARK  101  A    between atoms: _255  and  _257
REMARK  102  A    between atoms: _257  and  _258
REMARK  103  A    between atoms: _257  and  _260
REMARK  104  A    between atoms: _260  and  _261
REMARK  105  A    between atoms: _264  and  _266
REMARK  106  A    between atoms: _266  and  _267
REMARK  107  A    between atoms: _266  and  _269
REMARK  108  A    between atoms: _269  and  _270
REMARK  109  A    between atoms: _275  and  _276
REMARK  110  A    between atoms: _278  and  _280
REMARK  111  A    between atoms: _280  and  _281
REMARK  112  A    between atoms: _280  and  _283
REMARK  113  A    between atoms: _283  and  _284
REMARK  114  A    between atoms: _289  and  _290
REMARK  115  A    between atoms: _292  and  _294
REMARK  116  A    between atoms: _294  and  _295
REMARK  117  A    between atoms: _294  and  _297
REMARK  118  A    between atoms: _297  and  _298
REMARK  119  A    between atoms: _298  and  _299
REMARK  120  A    between atoms: _302  and  _304
REMARK  121  A    between atoms: _304  and  _305
REMARK  122  A    between atoms: _304  and  _307
REMARK  123  A    between atoms: _307  and  _308
REMARK  124  A    between atoms: _308  and  _309
REMARK  125  A    between atoms: _309  and  _310
REMARK  126  A    between atoms: _310  and  _311
REMARK  127  A    between atoms: _315  and  _317
REMARK  128  A    between atoms: _317  and  _318
REMARK  129  A    between atoms: _317  and  _320
REMARK  130  A    between atoms: _320  and  _321
REMARK  131  A    between atoms: _326  and  _327
REMARK  132  A    between atoms: _329  and  _331
REMARK  133  A    between atoms: _331  and  _332
REMARK  134  A    between atoms: _331  and  _334
REMARK  135  A    between atoms: _334  and  _335
REMARK  136  A    between atoms: _340  and  _342
REMARK  137  A    between atoms: _342  and  _343
REMARK  138  A    between atoms: _342  and  _345
REMARK  139  A    between atoms: _345  and  _346
REMARK  140  A    between atoms: _349  and  _351
REMARK  141  A    between atoms: _351  and  _352
REMARK  142  A    between atoms: _351  and  _354
REMARK  143  A    between atoms: _354  and  _355
REMARK  144  A    between atoms: _360  and  _362
REMARK  145  A    between atoms: _362  and  _363
REMARK  146  A    between atoms: _362  and  _365
REMARK  147  A    between atoms: _365  and  _366
REMARK  148  A    between atoms: _376  and  _378
REMARK  149  A    between atoms: _378  and  _379
REMARK  150  A    between atoms: _378  and  _381
REMARK  151  A    between atoms: _381  and  _382
REMARK  152  A    between atoms: _388  and  _390
REMARK  153  A    between atoms: _390  and  _391
REMARK  154  A    between atoms: _390  and  _393
REMARK  155  A    between atoms: _393  and  _394
REMARK  156  A    between atoms: _397  and  _399
REMARK  157  A    between atoms: _399  and  _400
REMARK  158  A    between atoms: _399  and  _402
REMARK  159  A    between atoms: _402  and  _403
REMARK  160  A    between atoms: _406  and  _408
REMARK  161  A    between atoms: _408  and  _409
REMARK  162  A    between atoms: _408  and  _411
REMARK  163  A    between atoms: _411  and  _412
REMARK  164  A    between atoms: _412  and  _413
REMARK  165  A    between atoms: _413  and  _414
REMARK  166  A    between atoms: _423  and  _425
REMARK  167  A    between atoms: _425  and  _426
REMARK  168  A    between atoms: _425  and  _428
REMARK  169  A    between atoms: _428  and  _429
REMARK  170  A    between atoms: _434  and  _436
REMARK  171  A    between atoms: _436  and  _437
REMARK  172  A    between atoms: _436  and  _439
REMARK  173  A    between atoms: _439  and  _440
REMARK  174  A    between atoms: _440  and  _441
REMARK  175  A    between atoms: _441  and  _442
REMARK  176  A    between atoms: _451  and  _453
REMARK  177  A    between atoms: _453  and  _454
REMARK  178  A    between atoms: _457  and  _459
REMARK  179  A    between atoms: _459  and  _460
REMARK  180  A    between atoms: _462  and  _464
REMARK  181  A    between atoms: _464  and  _465
REMARK  182  A    between atoms: _464  and  _467
REMARK  183  A    between atoms: _467  and  _468
REMARK  184  A    between atoms: _478  and  _480
REMARK  185  A    between atoms: _480  and  _481
REMARK  186  A    between atoms: _480  and  _483
REMARK  187  A    between atoms: _483  and  _484
REMARK  188  A    between atoms: _485  and  _487
REMARK  189  A    between atoms: _487  and  _488
REMARK  190  A    between atoms: _491  and  _493
REMARK  191  A    between atoms: _493  and  _494
REMARK  192  A    between atoms: _493  and  _496
REMARK  193  A    between atoms: _496  and  _497
REMARK  194  A    between atoms: _500  and  _502
REMARK  195  A    between atoms: _502  and  _503
REMARK  196  A    between atoms: _502  and  _505
REMARK  197  A    between atoms: _505  and  _506
REMARK  198  A    between atoms: _511  and  _512
REMARK  199  A    between atoms: _514  and  _516
REMARK  200  A    between atoms: _516  and  _517
REMARK  201  A    between atoms: _516  and  _519
REMARK  202  A    between atoms: _519  and  _520
REMARK  203  A    between atoms: _522  and  _524
REMARK  204  A    between atoms: _524  and  _525
REMARK  205  A    between atoms: _524  and  _527
REMARK  206  A    between atoms: _527  and  _528
REMARK  207  A    between atoms: _534  and  _536
REMARK  208  A    between atoms: _536  and  _537
REMARK  209  A    between atoms: _536  and  _539
REMARK  210  A    between atoms: _539  and  _540
REMARK  211  A    between atoms: _543  and  _545
REMARK  212  A    between atoms: _545  and  _546
REMARK  213  A    between atoms: _545  and  _548
REMARK  214  A    between atoms: _548  and  _549
REMARK  215  A    between atoms: _551  and  _553
REMARK  216  A    between atoms: _553  and  _554
REMARK  217  A    between atoms: _553  and  _556
REMARK  218  A    between atoms: _556  and  _557
REMARK  219  A    between atoms: _562  and  _564
REMARK  220  A    between atoms: _564  and  _565
REMARK  221  A    between atoms: _564  and  _567
REMARK  222  A    between atoms: _567  and  _568
REMARK  223  A    between atoms: _573  and  _575
REMARK  224  A    between atoms: _575  and  _576
REMARK  225  A    between atoms: _575  and  _578
REMARK  226  A    between atoms: _578  and  _579
REMARK  227  A    between atoms: _582  and  _584
REMARK  228  A    between atoms: _584  and  _585
REMARK  229  A    between atoms: _588  and  _590
REMARK  230  A    between atoms: _590  and  _591
REMARK  231  A    between atoms: _590  and  _593
REMARK  232  A    between atoms: _593  and  _594
REMARK  233  A    between atoms: _599  and  _600
REMARK  234  A    between atoms: _602  and  _604
REMARK  235  A    between atoms: _604  and  _605
REMARK  236  A    between atoms: _604  and  _607
REMARK  237  A    between atoms: _607  and  _608
REMARK  238  A    between atoms: _613  and  _614
REMARK  239  A    between atoms: _616  and  _618
REMARK  240  A    between atoms: _618  and  _619
REMARK  241  A    between atoms: _618  and  _621
REMARK  242  A    between atoms: _624  and  _626
REMARK  243  A    between atoms: _626  and  _627
REMARK  244  A    between atoms: _626  and  _629
REMARK  245  A    between atoms: _629  and  _630
REMARK  246  A    between atoms: _635  and  _637
REMARK  247  A    between atoms: _637  and  _638
REMARK  248  A    between atoms: _641  and  _643
REMARK  249  A    between atoms: _643  and  _644
REMARK  250  A    between atoms: _643  and  _646
REMARK  251  A    between atoms: _646  and  _647
REMARK  252  A    between atoms: _647  and  _648
REMARK  253  A    between atoms: _648  and  _649
REMARK  254  A    between atoms: _658  and  _660
REMARK  255  A    between atoms: _660  and  _661
REMARK  256  A    between atoms: _660  and  _663
REMARK  257  A    between atoms: _663  and  _664
REMARK  258  A    between atoms: _667  and  _669
REMARK  259  A    between atoms: _669  and  _670
REMARK  260  A    between atoms: _669  and  _672
REMARK  261  A    between atoms: _672  and  _673
REMARK  262  A    between atoms: _676  and  _678
REMARK  263  A    between atoms: _678  and  _679
REMARK  264  A    between atoms: _678  and  _681
REMARK  265  A    between atoms: _681  and  _682
REMARK  266  A    between atoms: _687  and  _689
REMARK  267  A    between atoms: _689  and  _690
REMARK  268  A    between atoms: _689  and  _692
REMARK  269  A    between atoms: _692  and  _693
REMARK                            x       y       z     vdW  Elec       q    Type
REMARK                         _______ _______ _______ _____ _____    ______ ____
ROOT
ATOM      1  O   HOH     1      42.144  29.113  16.903  0.00  0.00    +0.000 OA
ENDROOT
TORSDOF 0
