REMARK  Name = ../refined-set-2016/1a4r/1a4r_pocket.pdb
REMARK  190 active torsions:
REMARK  status: ('A' for Active; 'I' for Inactive)
REMARK    1  A    between atoms: _1  and  _3
REMARK    2  A    between atoms: _3  and  _4
REMARK    3  A    between atoms: _3  and  _6
REMARK    4  A    between atoms: _9  and  _11
REMARK    5  A    between atoms: _11  and  _12
REMARK    6  A    between atoms: _11  and  _14
REMARK    7  A    between atoms: _17  and  _19
REMARK    8  A    between atoms: _19  and  _20
REMARK    9  A    between atoms: _22  and  _24
REMARK   10  A    between atoms: _24  and  _25
REMARK   11  A    between atoms: _24  and  _27
REMARK   12  A    between atoms: _27  and  _28
REMARK   13  A    between atoms: _31  and  _33
REMARK   14  A    between atoms: _33  and  _34
REMARK   15  A    between atoms: _33  and  _36
REMARK   16  A    between atoms: _39  and  _41
REMARK   17  A    between atoms: _41  and  _42
REMARK   18  A    between atoms: _45  and  _47
REMARK   19  A    between atoms: _47  and  _48
REMARK   20  A    between atoms: _47  and  _50
REMARK   21  A    between atoms: _53  and  _55
REMARK   22  A    between atoms: _55  and  _56
REMARK   23  A    between atoms: _58  and  _60
REMARK   24  A    between atoms: _60  and  _61
REMARK   25  A    between atoms: _60  and  _63
REMARK   26  A    between atoms: _63  and  _64
REMARK   27  A    between atoms: _64  and  _65
REMARK   28  A    between atoms: _65  and  _66
REMARK   29  A    between atoms: _66  and  _67
REMARK   30  A    between atoms: _71  and  _73
REMARK   31  A    between atoms: _73  and  _74
REMARK   32  A    between atoms: _73  and  _76
REMARK   33  A    between atoms: _76  and  _77
REMARK   34  A    between atoms: _80  and  _82
REMARK   35  A    between atoms: _82  and  _83
REMARK   36  A    between atoms: _82  and  _85
REMARK   37  A    between atoms: _87  and  _89
REMARK   38  A    between atoms: _89  and  _90
REMARK   39  A    between atoms: _89  and  _92
REMARK   40  A    between atoms: _92  and  _93
REMARK   41  A    between atoms: _96  and  _98
REMARK   42  A    between atoms: _98  and  _99
REMARK   43  A    between atoms: _98  and  _101
REMARK   44  A    between atoms: _101  and  _102
REMARK   45  A    between atoms: _105  and  _107
REMARK   46  A    between atoms: _107  and  _108
REMARK   47  A    between atoms: _107  and  _110
REMARK   48  A    between atoms: _110  and  _111
REMARK   49  A    between atoms: _114  and  _116
REMARK   50  A    between atoms: _116  and  _117
REMARK   51  A    between atoms: _116  and  _119
REMARK   52  A    between atoms: _119  and  _120
REMARK   53  A    between atoms: _122  and  _124
REMARK   54  A    between atoms: _124  and  _125
REMARK   55  A    between atoms: _124  and  _127
REMARK   56  A    between atoms: _127  and  _128
REMARK   57  A    between atoms: _135  and  _136
REMARK   58  A    between atoms: _141  and  _143
REMARK   59  A    between atoms: _143  and  _144
REMARK   60  A    between atoms: _143  and  _146
REMARK   61  A    between atoms: _146  and  _147
REMARK   62  A    between atoms: _149  and  _151
REMARK   63  A    between atoms: _151  and  _152
REMARK   64  A    between atoms: _151  and  _154
REMARK   65  A    between atoms: _154  and  _155
REMARK   66  A    between atoms: _155  and  _156
REMARK   67  A    between atoms: _159  and  _161
REMARK   68  A    between atoms: _161  and  _162
REMARK   69  A    between atoms: _161  and  _164
REMARK   70  A    between atoms: _168  and  _169
REMARK   71  A    between atoms: _174  and  _176
REMARK   72  A    between atoms: _176  and  _177
REMARK   73  A    between atoms: _176  and  _179
REMARK   74  A    between atoms: _179  and  _180
REMARK   75  A    between atoms: _183  and  _185
REMARK   76  A    between atoms: _185  and  _186
REMARK   77  A    between atoms: _185  and  _188
REMARK   78  A    between atoms: _191  and  _193
REMARK   79  A    between atoms: _193  and  _194
REMARK   80  A    between atoms: _193  and  _196
REMARK   81  A    between atoms: _196  and  _197
REMARK   82  A    between atoms: _203  and  _205
REMARK   83  A    between atoms: _205  and  _206
REMARK   84  A    between atoms: _205  and  _208
REMARK   85  A    between atoms: _208  and  _209
REMARK   86  A    between atoms: _212  and  _214
REMARK   87  A    between atoms: _214  and  _215
REMARK   88  A    between atoms: _214  and  _217
REMARK   89  A    between atoms: _217  and  _218
REMARK   90  A    between atoms: _223  and  _224
REMARK   91  A    between atoms: _226  and  _228
REMARK   92  A    between atoms: _228  and  _229
REMARK   93  A    between atoms: _228  and  _231
REMARK   94  A    between atoms: _231  and  _232
REMARK   95  A    between atoms: _235  and  _237
REMARK   96  A    between atoms: _237  and  _238
REMARK   97  A    between atoms: _237  and  _240
REMARK   98  A    between atoms: _240  and  _241
REMARK   99  A    between atoms: _244  and  _246
REMARK  100  A    between atoms: _246  and  _247
REMARK  101  A    between atoms: _250  and  _252
REMARK  102  A    between atoms: _252  and  _253
REMARK  103  A    between atoms: _255  and  _257
REMARK  104  A    between atoms: _257  and  _258
REMARK  105  A    between atoms: _257  and  _260
REMARK  106  A    between atoms: _260  and  _261
REMARK  107  A    between atoms: _261  and  _262
REMARK  108  A    between atoms: _267  and  _269
REMARK  109  A    between atoms: _269  and  _270
REMARK  110  A    between atoms: _269  and  _272
REMARK  111  A    between atoms: _274  and  _276
REMARK  112  A    between atoms: _276  and  _277
REMARK  113  A    between atoms: _276  and  _279
REMARK  114  A    between atoms: _279  and  _280
REMARK  115  A    between atoms: _282  and  _284
REMARK  116  A    between atoms: _284  and  _285
REMARK  117  A    between atoms: _284  and  _287
REMARK  118  A    between atoms: _290  and  _292
REMARK  119  A    between atoms: _292  and  _293
REMARK  120  A    between atoms: _292  and  _295
REMARK  121  A    between atoms: _298  and  _300
REMARK  122  A    between atoms: _300  and  _301
REMARK  123  A    between atoms: _303  and  _305
REMARK  124  A    between atoms: _305  and  _306
REMARK  125  A    between atoms: _305  and  _308
REMARK  126  A    between atoms: _308  and  _309
REMARK  127  A    between atoms: _312  and  _314
REMARK  128  A    between atoms: _314  and  _315
REMARK  129  A    between atoms: _314  and  _317
REMARK  130  A    between atoms: _317  and  _318
REMARK  131  A    between atoms: _318  and  _319
REMARK  132  A    between atoms: _324  and  _326
REMARK  133  A    between atoms: _326  and  _327
REMARK  134  A    between atoms: _326  and  _329
REMARK  135  A    between atoms: _329  and  _330
REMARK  136  A    between atoms: _333  and  _335
REMARK  137  A    between atoms: _335  and  _336
REMARK  138  A    between atoms: _335  and  _338
REMARK  139  A    between atoms: _338  and  _339
REMARK  140  A    between atoms: _342  and  _344
REMARK  141  A    between atoms: _344  and  _345
REMARK  142  A    between atoms: _344  and  _347
REMARK  143  A    between atoms: _347  and  _348
REMARK  144  A    between atoms: _351  and  _353
REMARK  145  A    between atoms: _353  and  _354
REMARK  146  A    between atoms: _353  and  _356
REMARK  147  A    between atoms: _356  and  _357
REMARK  148  A    between atoms: _357  and  _358
REMARK  149  A    between atoms: _358  and  _359
REMARK  150  A    between atoms: _368  and  _370
REMARK  151  A    between atoms: _370  and  _371
REMARK  152  A    between atoms: _370  and  _373
REMARK  153  A    between atoms: _373  and  _374
REMARK  154  A    between atoms: _377  and  _379
REMARK  155  A    between atoms: _379  and  _380
REMARK  156  A    between atoms: _379  and  _382
REMARK  157  A    between atoms: _382  and  _383
REMARK  158  A    between atoms: _386  and  _388
REMARK  159  A    between atoms: _388  and  _389
REMARK  160  A    between atoms: _388  and  _391
REMARK  161  A    between atoms: _393  and  _395
REMARK  162  A    between atoms: _395  and  _396
REMARK  163  A    between atoms: _395  and  _398
REMARK  164  A    between atoms: _398  and  _399
REMARK  165  A    between atoms: _401  and  _403
REMARK  166  A    between atoms: _403  and  _404
REMARK  167  A    between atoms: _407  and  _409
REMARK  168  A    between atoms: _409  and  _410
REMARK  169  A    between atoms: _409  and  _412
REMARK  170  A    between atoms: _412  and  _413
REMARK  171  A    between atoms: _416  and  _418
REMARK  172  A    between atoms: _418  and  _419
REMARK  173  A    between atoms: _418  and  _421
REMARK  174  A    between atoms: _421  and  _422
REMARK  175  A    between atoms: _425  and  _427
REMARK  176  A    between atoms: _427  and  _428
REMARK  177  A    between atoms: _427  and  _430
REMARK  178  A    between atoms: _430  and  _431
REMARK  179  A    between atoms: _431  and  _432
REMARK  180  A    between atoms: _437  and  _439
REMARK  181  A    between atoms: _439  and  _440
REMARK  182  A    between atoms: _439  and  _442
REMARK  183  A    between atoms: _442  and  _443
REMARK  184  A    between atoms: _443  and  _444
REMARK  185  A    between atoms: _444  and  _445
REMARK  186  A    between atoms: _445  and  _446
REMARK  187  A    between atoms: _450  and  _452
REMARK  188  A    between atoms: _452  and  _453
REMARK  189  A    between atoms: _452  and  _455
REMARK  190  A    between atoms: _455  and  _456
REMARK                            x       y       z     vdW  Elec       q    Type
REMARK                         _______ _______ _______ _____ _____    ______ ____
ROOT
ATOM      1  CA  LYS A   9      97.622  28.384  -2.058  0.00  0.00    +0.149 C 
ENDROOT
BRANCH   1   2
ATOM      2  C   LYS A   9      97.568  28.446  -0.532  0.00  0.00    +0.241 C 
ATOM      3  N   THR A  10      98.488  27.735   0.103  0.00  0.00    -0.295 N 
ATOM      4  H   THR A  10      99.189  27.204  -0.452  0.00  0.00    +0.150 HD
ATOM      5  O   LYS A   9      96.717  29.122   0.055  0.00  0.00    -0.273 OA
BRANCH   3   6
ATOM      6  CA  THR A  10      98.545  27.677   1.552  0.00  0.00    +0.176 C 
BRANCH   6   7
ATOM      7  C   THR A  10      98.776  29.033   2.210  0.00  0.00    +0.243 C 
ATOM      8  O   THR A  10      98.091  29.390   3.165  0.00  0.00    -0.273 OA
ATOM      9  N   CYS A  11      99.739  29.787   1.699  0.00  0.00    -0.296 N 
ATOM     10  H   CYS A  11     100.289  29.437   0.889  0.00  0.00    +0.150 HD
BRANCH   9  11
ATOM     11  CA  CYS A  11     100.036  31.097   2.256  0.00  0.00    +0.160 C 
BRANCH  11  12
ATOM     12  C   CYS A  11      98.816  32.001   2.248  0.00  0.00    +0.242 C 
ATOM     13  O   CYS A  11      98.532  32.690   3.230  0.00  0.00    -0.273 OA
ATOM     14  N   LEU A  12      98.092  32.000   1.137  0.00  0.00    -0.297 N 
ATOM     15  H   LEU A  12      98.378  31.398   0.339  0.00  0.00    +0.150 HD
BRANCH  14  16
ATOM     16  CA  LEU A  12      96.905  32.828   1.020  0.00  0.00    +0.149 C 
BRANCH  16  17
ATOM     17  C   LEU A  12      95.804  32.357   1.979  0.00  0.00    +0.241 C 
ATOM     18  O   LEU A  12      95.007  33.159   2.464  0.00  0.00    -0.273 OA
ATOM     19  N   LEU A  13      95.766  31.062   2.273  0.00  0.00    -0.297 N 
ATOM     20  H   LEU A  13      96.457  30.414   1.844  0.00  0.00    +0.150 HD
BRANCH  19  21
ATOM     21  CA  LEU A  13      94.762  30.545   3.193  0.00  0.00    +0.149 C 
BRANCH  21  22
ATOM     22  C   LEU A  13      95.125  30.989   4.603  0.00  0.00    +0.241 C 
ATOM     23  O   LEU A  13      94.296  31.536   5.333  0.00  0.00    -0.273 OA
ATOM     24  N   ILE A  14      96.380  30.761   4.976  0.00  0.00    -0.297 N 
ATOM     25  H   ILE A  14      97.031  30.300   4.309  0.00  0.00    +0.150 HD
BRANCH  24  26
ATOM     26  CA  ILE A  14      96.866  31.140   6.294  0.00  0.00    +0.149 C 
BRANCH  26  27
ATOM     27  C   ILE A  14      96.753  32.644   6.491  0.00  0.00    +0.241 C 
ATOM     28  O   ILE A  14      96.200  33.116   7.480  0.00  0.00    -0.273 OA
ATOM     29  N   SER A  15      97.285  33.394   5.539  0.00  0.00    -0.296 N 
ATOM     30  H   SER A  15      97.744  32.938   4.725  0.00  0.00    +0.150 HD
BRANCH  29  31
ATOM     31  CA  SER A  15      97.238  34.844   5.612  0.00  0.00    +0.166 C 
BRANCH  31  32
ATOM     32  CB  SER A  15      95.807  35.348   5.832  0.00  0.00    +0.229 C 
ATOM     33  OG  SER A  15      95.569  36.308   6.573  0.00  0.00    -0.286 OA
ENDBRANCH  31  32
BRANCH  31  34
ATOM     34  C   SER A  15      97.809  35.439   4.318  0.00  0.00    +0.165 C 
BRANCH  34  35
ATOM     35  O   SER A  15      98.341  36.738   4.524  0.00  0.00    -0.380 OA
ATOM     36  H   SER A  15      98.698  37.086   3.669  0.00  0.00    +0.211 HD
ENDBRANCH  34  35
ENDBRANCH  31  34
ENDBRANCH  29  31
ENDBRANCH  26  27
BRANCH  26  37
ATOM     37  CB  ILE A  14      98.339  30.713   6.484  0.00  0.00    +0.027 C 
ATOM     38  CG2 ILE A  14      99.020  31.615   7.513  0.00  0.00    +0.002 C 
BRANCH  37  39
ATOM     39  CG1 ILE A  14      98.393  29.244   6.921  0.00  0.00    +0.002 C 
ATOM     40  CD1 ILE A  14      99.630  28.504   6.473  0.00  0.00    +0.000 C 
ENDBRANCH  37  39
ENDBRANCH  26  37
ENDBRANCH  24  26
ENDBRANCH  21  22
BRANCH  21  41
ATOM     41  CB  LEU A  13      94.710  29.021   3.123  0.00  0.00    +0.029 C 
BRANCH  41  42
ATOM     42  CG  LEU A  13      93.848  28.480   1.981  0.00  0.00    +0.002 C 
ATOM     43  CD2 LEU A  13      92.377  28.848   2.212  0.00  0.00    +0.000 C 
ATOM     44  CD1 LEU A  13      94.033  26.970   1.879  0.00  0.00    +0.000 C 
ENDBRANCH  41  42
ENDBRANCH  21  41
ENDBRANCH  19  21
ENDBRANCH  16  17
BRANCH  16  45
ATOM     45  CB  LEU A  12      96.428  32.839  -0.440  0.00  0.00    +0.029 C 
BRANCH  45  46
ATOM     46  CG  LEU A  12      95.126  32.165  -0.873  0.00  0.00    +0.002 C 
ATOM     47  CD2 LEU A  12      94.016  33.199  -0.971  0.00  0.00    +0.000 C 
ATOM     48  CD1 LEU A  12      95.340  31.494  -2.222  0.00  0.00    +0.000 C 
ENDBRANCH  45  46
ENDBRANCH  16  45
ENDBRANCH  14  16
ENDBRANCH  11  12
BRANCH  11  49
ATOM     49  CB  CYS A  11     101.164  31.757   1.469  0.00  0.00    +0.098 C 
ATOM     50  SG  CYS A  11     102.791  31.072   1.854  0.00  0.00    -0.080 S 
ENDBRANCH  11  49
ENDBRANCH   9  11
ENDBRANCH   6   7
BRANCH   6  51
ATOM     51  CB  THR A  10      99.633  26.702   1.990  0.00  0.00    +0.137 C 
ATOM     52  CG2 THR A  10      99.566  26.480   3.489  0.00  0.00    +0.034 C 
BRANCH  51  53
ATOM     53  OG1 THR A  10      99.445  25.452   1.309  0.00  0.00    -0.382 OA
ATOM     54  HG1 THR A  10      98.555  25.084   1.538  0.00  0.00    +0.210 HD
ENDBRANCH  51  53
ENDBRANCH   6  51
ENDBRANCH   3   6
ENDBRANCH   1   2
BRANCH   1  57
ATOM     55  C   GLY A   8      99.427  29.991  -2.379  0.00  0.00    +0.243 C 
ATOM     56  O   GLY A   8      98.824  30.871  -1.768  0.00  0.00    -0.273 OA
ATOM     57  N   LYS A   9      98.937  28.768  -2.565  0.00  0.00    -0.297 N 
ATOM     58  H   LYS A   9      99.504  28.068  -3.084  0.00  0.00    +0.150 HD
BRANCH  55  59
ATOM     59  CA  GLY A   8     100.796  30.278  -2.955  0.00  0.00    +0.176 C 
BRANCH  59  61
ATOM     60  C   VAL A   7     100.969  30.212  -5.378  0.00  0.00    +0.241 C 
ATOM     61  N   GLY A   8     101.088  29.594  -4.202  0.00  0.00    -0.295 N 
ATOM     62  H   GLY A   8     101.396  28.601  -4.178  0.00  0.00    +0.150 HD
ATOM     63  O   VAL A   7     100.589  31.375  -5.497  0.00  0.00    -0.273 OA
BRANCH  60  64
ATOM     64  CA  VAL A   7     101.333  29.385  -6.607  0.00  0.00    +0.149 C 
BRANCH  64  67
ATOM     65  C   ALA A   6     103.270  28.189  -5.739  0.00  0.00    +0.241 C 
ATOM     66  O   ALA A   6     103.916  29.245  -5.632  0.00  0.00    -0.273 OA
ATOM     67  N   VAL A   7     102.018  28.153  -6.202  0.00  0.00    -0.297 N 
ATOM     68  H   VAL A   7     101.523  27.241  -6.276  0.00  0.00    +0.150 HD
BRANCH  65  69
ATOM     69  CA  ALA A   6     103.913  26.861  -5.328  0.00  0.00    +0.149 C 
ATOM     70  CB  ALA A   6     105.259  26.708  -6.032  0.00  0.00    +0.031 C 
BRANCH  69  72
ATOM     71  C   VAL A   5     102.992  24.993  -6.654  0.00  0.00    +0.241 C 
ATOM     72  N   ALA A   6     103.122  25.637  -5.495  0.00  0.00    -0.297 N 
ATOM     73  H   ALA A   6     102.635  25.250  -4.661  0.00  0.00    +0.150 HD
ATOM     74  O   VAL A   5     103.476  25.396  -7.713  0.00  0.00    -0.273 OA
BRANCH  71  75
ATOM     75  CA  VAL A   5     102.154  23.716  -6.614  0.00  0.00    +0.149 C 
BRANCH  75  78
ATOM     76  C   ASP A   4     100.446  24.542  -8.093  0.00  0.00    +0.241 C 
ATOM     77  O   ASP A   4     100.202  25.473  -7.326  0.00  0.00    -0.273 OA
ATOM     78  N   VAL A   5     101.377  23.635  -7.837  0.00  0.00    -0.297 N 
ATOM     79  H   VAL A   5     101.551  22.864  -8.513  0.00  0.00    +0.150 HD
BRANCH  76  80
ATOM     80  CA  ASP A   4      99.691  24.393  -9.415  0.00  0.00    +0.160 C 
BRANCH  80  83
ATOM     81  C   GLY A   3      97.468  24.489  -8.375  0.00  0.00    +0.243 C 
ATOM     82  O   GLY A   3      97.730  23.607  -7.541  0.00  0.00    -0.273 OA
ATOM     83  N   ASP A   4      98.328  24.916  -9.297  0.00  0.00    -0.296 N 
ATOM     84  H   ASP A   4      98.019  25.653  -9.962  0.00  0.00    +0.150 HD
BRANCH  81  85
ATOM     85  CA  GLY A   3      96.111  25.156  -8.405  0.00  0.00    +0.176 C 
BRANCH  85  88
ATOM     86  C   VAL A   2      94.044  25.060  -7.184  0.00  0.00    +0.241 C 
ATOM     87  O   VAL A   2      93.830  26.252  -7.390  0.00  0.00    -0.273 OA
ATOM     88  N   GLY A   3      95.124  24.434  -7.629  0.00  0.00    -0.295 N 
ATOM     89  H   GLY A   3      95.263  23.424  -7.421  0.00  0.00    +0.150 HD
BRANCH  86  90
ATOM     90  CA  VAL A   2      93.068  24.215  -6.384  0.00  0.00    +0.148 C 
BRANCH  90  93
ATOM     91  C   VAL A   1      92.098  24.815  -4.230  0.00  0.00    +0.238 C 
ATOM     92  O   VAL A   1      92.743  23.956  -3.639  0.00  0.00    -0.274 OA
ATOM     93  N   VAL A   2      92.193  25.027  -5.542  0.00  0.00    -0.297 N 
ATOM     94  H   VAL A   2      91.632  25.787  -5.976  0.00  0.00    +0.150 HD
BRANCH  91  95
ATOM     95  CA  VAL A   1      91.152  25.713  -3.457  0.00  0.00    +0.145 C 
BRANCH  95  96
ATOM     96  CB  VAL A   1      91.977  26.508  -2.432  0.00  0.00    +0.025 C 
ATOM     97  CG2 VAL A   1      91.076  27.514  -1.718  0.00  0.00    +0.002 C 
ATOM     98  CG1 VAL A   1      93.152  27.204  -3.124  0.00  0.00    +0.002 C 
ENDBRANCH  95  96
BRANCH  95  99
ATOM     99  N   VAL A   1      90.124  24.937  -2.778  0.00  0.00    -0.238 NA
ATOM    100  H   VAL A   1      90.398  24.361  -1.957  0.00  0.00    +0.142 HD
ENDBRANCH  95  99
ENDBRANCH  91  95
ENDBRANCH  90  93
BRANCH  90 101
ATOM    101  CB  VAL A   2      92.254  23.349  -7.363  0.00  0.00    +0.027 C 
ATOM    102  CG2 VAL A   2      91.230  22.524  -6.595  0.00  0.00    +0.002 C 
ATOM    103  CG1 VAL A   2      91.562  24.236  -8.383  0.00  0.00    +0.002 C 
ENDBRANCH  90 101
ENDBRANCH  86  90
ENDBRANCH  85  88
ENDBRANCH  81  85
ENDBRANCH  80  83
BRANCH  80 104
ATOM    104  CB  ASP A   4     100.465  25.159 -10.503  0.00  0.00    +0.143 C 
BRANCH 104 105
ATOM    105  CG  ASP A   4     100.302  24.553 -11.893  0.00  0.00    +0.367 C 
ATOM    106  OD2 ASP A   4      99.405  23.693 -12.082  0.00  0.00    -0.246 OA
ATOM    107  OD1 ASP A   4     101.081  24.949 -12.796  0.00  0.00    -0.246 OA
ENDBRANCH 104 105
ENDBRANCH  80 104
ENDBRANCH  76  80
ENDBRANCH  75  78
BRANCH  75 108
ATOM    108  CB  VAL A   5     103.087  22.488  -6.462  0.00  0.00    +0.027 C 
ATOM    109  CG2 VAL A   5     103.669  22.442  -5.051  0.00  0.00    +0.002 C 
ATOM    110  CG1 VAL A   5     102.313  21.207  -6.757  0.00  0.00    +0.002 C 
ENDBRANCH  75 108
ENDBRANCH  71  75
ENDBRANCH  69  72
ENDBRANCH  65  69
ENDBRANCH  64  67
BRANCH  64 111
ATOM    111  CB  VAL A   7     100.045  29.099  -7.429  0.00  0.00    +0.027 C 
ATOM    112  CG2 VAL A   7      98.973  28.492  -6.545  0.00  0.00    +0.002 C 
ATOM    113  CG1 VAL A   7     100.364  28.171  -8.582  0.00  0.00    +0.002 C 
ENDBRANCH  64 111
ENDBRANCH  60  64
ENDBRANCH  59  61
ENDBRANCH  55  59
ENDBRANCH   1  57
BRANCH   1 114
ATOM    114  CB  LYS A   9      97.262  26.961  -2.523  0.00  0.00    +0.029 C 
BRANCH 114 115
ATOM    115  CG  LYS A   9      97.106  26.810  -4.027  0.00  0.00    +0.000 C 
BRANCH 115 116
ATOM    116  CD  LYS A   9      96.292  25.581  -4.384  0.00  0.00    -0.024 C 
BRANCH 116 117
ATOM    117  CE  LYS A   9      97.151  24.324  -4.381  0.00  0.00    -0.086 C 
BRANCH 117 118
ATOM    118  NZ  LYS A   9      98.602  24.614  -4.554  0.00  0.00    +0.380 N 
ATOM    119  HZ1 LYS A   9      98.928  25.223  -3.777  0.00  0.00    -0.089 HD
ATOM    120  HZ2 LYS A   9      99.136  23.722  -4.544  0.00  0.00    -0.089 HD
ATOM    121  HZ3 LYS A   9      98.752  25.099  -5.462  0.00  0.00    -0.089 HD
ENDBRANCH 117 118
ENDBRANCH 116 117
ENDBRANCH 115 116
ENDBRANCH 114 115
ENDBRANCH   1 114
TORSDOF 52
REMARK  Name = ../refined-set-2016/1a4r/1a4r_pocket.pdb
REMARK  190 active torsions:
REMARK  status: ('A' for Active; 'I' for Inactive)
REMARK    1  A    between atoms: _1  and  _3
REMARK    2  A    between atoms: _3  and  _4
REMARK    3  A    between atoms: _3  and  _6
REMARK    4  A    between atoms: _9  and  _11
REMARK    5  A    between atoms: _11  and  _12
REMARK    6  A    between atoms: _11  and  _14
REMARK    7  A    between atoms: _17  and  _19
REMARK    8  A    between atoms: _19  and  _20
REMARK    9  A    between atoms: _22  and  _24
REMARK   10  A    between atoms: _24  and  _25
REMARK   11  A    between atoms: _24  and  _27
REMARK   12  A    between atoms: _27  and  _28
REMARK   13  A    between atoms: _31  and  _33
REMARK   14  A    between atoms: _33  and  _34
REMARK   15  A    between atoms: _33  and  _36
REMARK   16  A    between atoms: _39  and  _41
REMARK   17  A    between atoms: _41  and  _42
REMARK   18  A    between atoms: _45  and  _47
REMARK   19  A    between atoms: _47  and  _48
REMARK   20  A    between atoms: _47  and  _50
REMARK   21  A    between atoms: _53  and  _55
REMARK   22  A    between atoms: _55  and  _56
REMARK   23  A    between atoms: _58  and  _60
REMARK   24  A    between atoms: _60  and  _61
REMARK   25  A    between atoms: _60  and  _63
REMARK   26  A    between atoms: _63  and  _64
REMARK   27  A    between atoms: _64  and  _65
REMARK   28  A    between atoms: _65  and  _66
REMARK   29  A    between atoms: _66  and  _67
REMARK   30  A    between atoms: _71  and  _73
REMARK   31  A    between atoms: _73  and  _74
REMARK   32  A    between atoms: _73  and  _76
REMARK   33  A    between atoms: _76  and  _77
REMARK   34  A    between atoms: _80  and  _82
REMARK   35  A    between atoms: _82  and  _83
REMARK   36  A    between atoms: _82  and  _85
REMARK   37  A    between atoms: _87  and  _89
REMARK   38  A    between atoms: _89  and  _90
REMARK   39  A    between atoms: _89  and  _92
REMARK   40  A    between atoms: _92  and  _93
REMARK   41  A    between atoms: _96  and  _98
REMARK   42  A    between atoms: _98  and  _99
REMARK   43  A    between atoms: _98  and  _101
REMARK   44  A    between atoms: _101  and  _102
REMARK   45  A    between atoms: _105  and  _107
REMARK   46  A    between atoms: _107  and  _108
REMARK   47  A    between atoms: _107  and  _110
REMARK   48  A    between atoms: _110  and  _111
REMARK   49  A    between atoms: _114  and  _116
REMARK   50  A    between atoms: _116  and  _117
REMARK   51  A    between atoms: _116  and  _119
REMARK   52  A    between atoms: _119  and  _120
REMARK   53  A    between atoms: _122  and  _124
REMARK   54  A    between atoms: _124  and  _125
REMARK   55  A    between atoms: _124  and  _127
REMARK   56  A    between atoms: _127  and  _128
REMARK   57  A    between atoms: _135  and  _136
REMARK   58  A    between atoms: _141  and  _143
REMARK   59  A    between atoms: _143  and  _144
REMARK   60  A    between atoms: _143  and  _146
REMARK   61  A    between atoms: _146  and  _147
REMARK   62  A    between atoms: _149  and  _151
REMARK   63  A    between atoms: _151  and  _152
REMARK   64  A    between atoms: _151  and  _154
REMARK   65  A    between atoms: _154  and  _155
REMARK   66  A    between atoms: _155  and  _156
REMARK   67  A    between atoms: _159  and  _161
REMARK   68  A    between atoms: _161  and  _162
REMARK   69  A    between atoms: _161  and  _164
REMARK   70  A    between atoms: _168  and  _169
REMARK   71  A    between atoms: _174  and  _176
REMARK   72  A    between atoms: _176  and  _177
REMARK   73  A    between atoms: _176  and  _179
REMARK   74  A    between atoms: _179  and  _180
REMARK   75  A    between atoms: _183  and  _185
REMARK   76  A    between atoms: _185  and  _186
REMARK   77  A    between atoms: _185  and  _188
REMARK   78  A    between atoms: _191  and  _193
REMARK   79  A    between atoms: _193  and  _194
REMARK   80  A    between atoms: _193  and  _196
REMARK   81  A    between atoms: _196  and  _197
REMARK   82  A    between atoms: _203  and  _205
REMARK   83  A    between atoms: _205  and  _206
REMARK   84  A    between atoms: _205  and  _208
REMARK   85  A    between atoms: _208  and  _209
REMARK   86  A    between atoms: _212  and  _214
REMARK   87  A    between atoms: _214  and  _215
REMARK   88  A    between atoms: _214  and  _217
REMARK   89  A    between atoms: _217  and  _218
REMARK   90  A    between atoms: _223  and  _224
REMARK   91  A    between atoms: _226  and  _228
REMARK   92  A    between atoms: _228  and  _229
REMARK   93  A    between atoms: _228  and  _231
REMARK   94  A    between atoms: _231  and  _232
REMARK   95  A    between atoms: _235  and  _237
REMARK   96  A    between atoms: _237  and  _238
REMARK   97  A    between atoms: _237  and  _240
REMARK   98  A    between atoms: _240  and  _241
REMARK   99  A    between atoms: _244  and  _246
REMARK  100  A    between atoms: _246  and  _247
REMARK  101  A    between atoms: _250  and  _252
REMARK  102  A    between atoms: _252  and  _253
REMARK  103  A    between atoms: _255  and  _257
REMARK  104  A    between atoms: _257  and  _258
REMARK  105  A    between atoms: _257  and  _260
REMARK  106  A    between atoms: _260  and  _261
REMARK  107  A    between atoms: _261  and  _262
REMARK  108  A    between atoms: _267  and  _269
REMARK  109  A    between atoms: _269  and  _270
REMARK  110  A    between atoms: _269  and  _272
REMARK  111  A    between atoms: _274  and  _276
REMARK  112  A    between atoms: _276  and  _277
REMARK  113  A    between atoms: _276  and  _279
REMARK  114  A    between atoms: _279  and  _280
REMARK  115  A    between atoms: _282  and  _284
REMARK  116  A    between atoms: _284  and  _285
REMARK  117  A    between atoms: _284  and  _287
REMARK  118  A    between atoms: _290  and  _292
REMARK  119  A    between atoms: _292  and  _293
REMARK  120  A    between atoms: _292  and  _295
REMARK  121  A    between atoms: _298  and  _300
REMARK  122  A    between atoms: _300  and  _301
REMARK  123  A    between atoms: _303  and  _305
REMARK  124  A    between atoms: _305  and  _306
REMARK  125  A    between atoms: _305  and  _308
REMARK  126  A    between atoms: _308  and  _309
REMARK  127  A    between atoms: _312  and  _314
REMARK  128  A    between atoms: _314  and  _315
REMARK  129  A    between atoms: _314  and  _317
REMARK  130  A    between atoms: _317  and  _318
REMARK  131  A    between atoms: _318  and  _319
REMARK  132  A    between atoms: _324  and  _326
REMARK  133  A    between atoms: _326  and  _327
REMARK  134  A    between atoms: _326  and  _329
REMARK  135  A    between atoms: _329  and  _330
REMARK  136  A    between atoms: _333  and  _335
REMARK  137  A    between atoms: _335  and  _336
REMARK  138  A    between atoms: _335  and  _338
REMARK  139  A    between atoms: _338  and  _339
REMARK  140  A    between atoms: _342  and  _344
REMARK  141  A    between atoms: _344  and  _345
REMARK  142  A    between atoms: _344  and  _347
REMARK  143  A    between atoms: _347  and  _348
REMARK  144  A    between atoms: _351  and  _353
REMARK  145  A    between atoms: _353  and  _354
REMARK  146  A    between atoms: _353  and  _356
REMARK  147  A    between atoms: _356  and  _357
REMARK  148  A    between atoms: _357  and  _358
REMARK  149  A    between atoms: _358  and  _359
REMARK  150  A    between atoms: _368  and  _370
REMARK  151  A    between atoms: _370  and  _371
REMARK  152  A    between atoms: _370  and  _373
REMARK  153  A    between atoms: _373  and  _374
REMARK  154  A    between atoms: _377  and  _379
REMARK  155  A    between atoms: _379  and  _380
REMARK  156  A    between atoms: _379  and  _382
REMARK  157  A    between atoms: _382  and  _383
REMARK  158  A    between atoms: _386  and  _388
REMARK  159  A    between atoms: _388  and  _389
REMARK  160  A    between atoms: _388  and  _391
REMARK  161  A    between atoms: _393  and  _395
REMARK  162  A    between atoms: _395  and  _396
REMARK  163  A    between atoms: _395  and  _398
REMARK  164  A    between atoms: _398  and  _399
REMARK  165  A    between atoms: _401  and  _403
REMARK  166  A    between atoms: _403  and  _404
REMARK  167  A    between atoms: _407  and  _409
REMARK  168  A    between atoms: _409  and  _410
REMARK  169  A    between atoms: _409  and  _412
REMARK  170  A    between atoms: _412  and  _413
REMARK  171  A    between atoms: _416  and  _418
REMARK  172  A    between atoms: _418  and  _419
REMARK  173  A    between atoms: _418  and  _421
REMARK  174  A    between atoms: _421  and  _422
REMARK  175  A    between atoms: _425  and  _427
REMARK  176  A    between atoms: _427  and  _428
REMARK  177  A    between atoms: _427  and  _430
REMARK  178  A    between atoms: _430  and  _431
REMARK  179  A    between atoms: _431  and  _432
REMARK  180  A    between atoms: _437  and  _439
REMARK  181  A    between atoms: _439  and  _440
REMARK  182  A    between atoms: _439  and  _442
REMARK  183  A    between atoms: _442  and  _443
REMARK  184  A    between atoms: _443  and  _444
REMARK  185  A    between atoms: _444  and  _445
REMARK  186  A    between atoms: _445  and  _446
REMARK  187  A    between atoms: _450  and  _452
REMARK  188  A    between atoms: _452  and  _453
REMARK  189  A    between atoms: _452  and  _455
REMARK  190  A    between atoms: _455  and  _456
REMARK                            x       y       z     vdW  Elec       q    Type
REMARK                         _______ _______ _______ _____ _____    ______ ____
ROOT
ATOM      1  C   PRO A   2     104.983  32.873   6.677  0.00  0.00    +0.241 C 
ATOM      2  N   SER A   3     105.613  33.827   7.358  0.00  0.00    -0.295 N 
ATOM      3  H   SER A   3     105.109  34.319   8.123  0.00  0.00    +0.150 HD
ATOM      4  O   PRO A   2     105.511  32.235   5.760  0.00  0.00    -0.273 OA
ENDROOT
BRANCH   1   8
ATOM      5  C   PHE A   1     102.659  34.893   6.891  0.00  0.00    +0.242 C 
ATOM      6  O   PHE A   1     103.520  35.338   7.650  0.00  0.00    -0.273 OA
ATOM      7  N   PRO A   2     102.597  33.589   6.566  0.00  0.00    -0.272 N 
ATOM      8  CA  PRO A   2     103.541  32.594   7.095  0.00  0.00    +0.152 C 
ATOM      9  CB  PRO A   2     103.043  31.261   6.526  0.00  0.00    +0.031 C 
ATOM     10  CG  PRO A   2     101.701  31.534   5.946  0.00  0.00    +0.024 C 
ATOM     11  CD  PRO A   2     101.608  32.993   5.653  0.00  0.00    +0.094 C 
BRANCH   5  12
ATOM     12  CA  PHE A   1     101.615  35.823   6.269  0.00  0.00    +0.149 C 
BRANCH  12  13
ATOM     13  N   PHE A   1     100.954  36.628   7.288  0.00  0.00    -0.238 NA
ATOM     14  H   PHE A   1     101.185  37.639   7.359  0.00  0.00    +0.142 HD
ENDBRANCH  12  13
BRANCH  12  15
ATOM     15  CB  PHE A   1     102.282  36.740   5.230  0.00  0.00    +0.053 C 
BRANCH  15  16
ATOM     16  CG  PHE A   1     102.965  35.996   4.107  0.00  0.00    -0.020 A 
ATOM     17  CD2 PHE A   1     104.326  35.701   4.177  0.00  0.00    -0.004 A 
ATOM     18  CE2 PHE A   1     104.962  34.989   3.156  0.00  0.00    -0.000 A 
ATOM     19  CZ  PHE A   1     104.237  34.566   2.052  0.00  0.00    -0.000 A 
ATOM     20  CE1 PHE A   1     102.874  34.856   1.966  0.00  0.00    -0.000 A 
ATOM     21  CD1 PHE A   1     102.245  35.570   2.993  0.00  0.00    -0.004 A 
ENDBRANCH  15  16
ENDBRANCH  12  15
ENDBRANCH   5  12
ENDBRANCH   1   8
BRANCH   2  22
ATOM     22  CA  SER A   3     106.997  34.203   7.060  0.00  0.00    +0.178 C 
BRANCH  22  23
ATOM     23  C   SER A   3     107.984  33.196   7.662  0.00  0.00    +0.243 C 
ATOM     24  N   GLU A   4     107.585  32.576   8.770  0.00  0.00    -0.298 N 
ATOM     25  H   GLU A   4     106.647  32.804   9.156  0.00  0.00    +0.150 HD
ATOM     26  O   SER A   3     109.073  32.984   7.125  0.00  0.00    -0.273 OA
BRANCH  24  27
ATOM     27  CA  GLU A   4     108.408  31.587   9.470  0.00  0.00    +0.137 C 
BRANCH  27  28
ATOM     28  C   GLU A   4     108.329  30.214   8.783  0.00  0.00    +0.227 C 
ATOM     29  O   GLU A   4     108.484  30.115   7.560  0.00  0.00    -0.286 OA
ENDBRANCH  27  28
BRANCH  27  30
ATOM     30  CB  GLU A   4     107.943  31.483  10.930  0.00  0.00    +0.039 C 
BRANCH  30  31
ATOM     31  CG  GLU A   4     106.867  32.504  11.314  0.00  0.00    +0.116 C 
BRANCH  31  32
ATOM     32  CD  GLU A   4     106.965  32.963  12.763  0.00  0.00    +0.365 C 
ATOM     33  OE2 GLU A   4     107.220  32.112  13.648  0.00  0.00    -0.246 OA
ATOM     34  OE1 GLU A   4     106.784  34.177  13.014  0.00  0.00    -0.246 OA
ENDBRANCH  31  32
ENDBRANCH  30  31
ENDBRANCH  27  30
ENDBRANCH  24  27
ENDBRANCH  22  23
BRANCH  22  35
ATOM     35  CB  SER A   3     107.290  35.618   7.595  0.00  0.00    +0.166 C 
BRANCH  35  36
ATOM     36  OG  SER A   3     107.479  36.560   6.541  0.00  0.00    -0.380 OA
ATOM     37  H   SER A   3     107.664  37.453   6.927  0.00  0.00    +0.211 HD
ENDBRANCH  35  36
ENDBRANCH  22  35
ENDBRANCH   2  22
TORSDOF 14
REMARK  Name = ../refined-set-2016/1a4r/1a4r_pocket.pdb
REMARK  190 active torsions:
REMARK  status: ('A' for Active; 'I' for Inactive)
REMARK    1  A    between atoms: _1  and  _3
REMARK    2  A    between atoms: _3  and  _4
REMARK    3  A    between atoms: _3  and  _6
REMARK    4  A    between atoms: _9  and  _11
REMARK    5  A    between atoms: _11  and  _12
REMARK    6  A    between atoms: _11  and  _14
REMARK    7  A    between atoms: _17  and  _19
REMARK    8  A    between atoms: _19  and  _20
REMARK    9  A    between atoms: _22  and  _24
REMARK   10  A    between atoms: _24  and  _25
REMARK   11  A    between atoms: _24  and  _27
REMARK   12  A    between atoms: _27  and  _28
REMARK   13  A    between atoms: _31  and  _33
REMARK   14  A    between atoms: _33  and  _34
REMARK   15  A    between atoms: _33  and  _36
REMARK   16  A    between atoms: _39  and  _41
REMARK   17  A    between atoms: _41  and  _42
REMARK   18  A    between atoms: _45  and  _47
REMARK   19  A    between atoms: _47  and  _48
REMARK   20  A    between atoms: _47  and  _50
REMARK   21  A    between atoms: _53  and  _55
REMARK   22  A    between atoms: _55  and  _56
REMARK   23  A    between atoms: _58  and  _60
REMARK   24  A    between atoms: _60  and  _61
REMARK   25  A    between atoms: _60  and  _63
REMARK   26  A    between atoms: _63  and  _64
REMARK   27  A    between atoms: _64  and  _65
REMARK   28  A    between atoms: _65  and  _66
REMARK   29  A    between atoms: _66  and  _67
REMARK   30  A    between atoms: _71  and  _73
REMARK   31  A    between atoms: _73  and  _74
REMARK   32  A    between atoms: _73  and  _76
REMARK   33  A    between atoms: _76  and  _77
REMARK   34  A    between atoms: _80  and  _82
REMARK   35  A    between atoms: _82  and  _83
REMARK   36  A    between atoms: _82  and  _85
REMARK   37  A    between atoms: _87  and  _89
REMARK   38  A    between atoms: _89  and  _90
REMARK   39  A    between atoms: _89  and  _92
REMARK   40  A    between atoms: _92  and  _93
REMARK   41  A    between atoms: _96  and  _98
REMARK   42  A    between atoms: _98  and  _99
REMARK   43  A    between atoms: _98  and  _101
REMARK   44  A    between atoms: _101  and  _102
REMARK   45  A    between atoms: _105  and  _107
REMARK   46  A    between atoms: _107  and  _108
REMARK   47  A    between atoms: _107  and  _110
REMARK   48  A    between atoms: _110  and  _111
REMARK   49  A    between atoms: _114  and  _116
REMARK   50  A    between atoms: _116  and  _117
REMARK   51  A    between atoms: _116  and  _119
REMARK   52  A    between atoms: _119  and  _120
REMARK   53  A    between atoms: _122  and  _124
REMARK   54  A    between atoms: _124  and  _125
REMARK   55  A    between atoms: _124  and  _127
REMARK   56  A    between atoms: _127  and  _128
REMARK   57  A    between atoms: _135  and  _136
REMARK   58  A    between atoms: _141  and  _143
REMARK   59  A    between atoms: _143  and  _144
REMARK   60  A    between atoms: _143  and  _146
REMARK   61  A    between atoms: _146  and  _147
REMARK   62  A    between atoms: _149  and  _151
REMARK   63  A    between atoms: _151  and  _152
REMARK   64  A    between atoms: _151  and  _154
REMARK   65  A    between atoms: _154  and  _155
REMARK   66  A    between atoms: _155  and  _156
REMARK   67  A    between atoms: _159  and  _161
REMARK   68  A    between atoms: _161  and  _162
REMARK   69  A    between atoms: _161  and  _164
REMARK   70  A    between atoms: _168  and  _169
REMARK   71  A    between atoms: _174  and  _176
REMARK   72  A    between atoms: _176  and  _177
REMARK   73  A    between atoms: _176  and  _179
REMARK   74  A    between atoms: _179  and  _180
REMARK   75  A    between atoms: _183  and  _185
REMARK   76  A    between atoms: _185  and  _186
REMARK   77  A    between atoms: _185  and  _188
REMARK   78  A    between atoms: _191  and  _193
REMARK   79  A    between atoms: _193  and  _194
REMARK   80  A    between atoms: _193  and  _196
REMARK   81  A    between atoms: _196  and  _197
REMARK   82  A    between atoms: _203  and  _205
REMARK   83  A    between atoms: _205  and  _206
REMARK   84  A    between atoms: _205  and  _208
REMARK   85  A    between atoms: _208  and  _209
REMARK   86  A    between atoms: _212  and  _214
REMARK   87  A    between atoms: _214  and  _215
REMARK   88  A    between atoms: _214  and  _217
REMARK   89  A    between atoms: _217  and  _218
REMARK   90  A    between atoms: _223  and  _224
REMARK   91  A    between atoms: _226  and  _228
REMARK   92  A    between atoms: _228  and  _229
REMARK   93  A    between atoms: _228  and  _231
REMARK   94  A    between atoms: _231  and  _232
REMARK   95  A    between atoms: _235  and  _237
REMARK   96  A    between atoms: _237  and  _238
REMARK   97  A    between atoms: _237  and  _240
REMARK   98  A    between atoms: _240  and  _241
REMARK   99  A    between atoms: _244  and  _246
REMARK  100  A    between atoms: _246  and  _247
REMARK  101  A    between atoms: _250  and  _252
REMARK  102  A    between atoms: _252  and  _253
REMARK  103  A    between atoms: _255  and  _257
REMARK  104  A    between atoms: _257  and  _258
REMARK  105  A    between atoms: _257  and  _260
REMARK  106  A    between atoms: _260  and  _261
REMARK  107  A    between atoms: _261  and  _262
REMARK  108  A    between atoms: _267  and  _269
REMARK  109  A    between atoms: _269  and  _270
REMARK  110  A    between atoms: _269  and  _272
REMARK  111  A    between atoms: _274  and  _276
REMARK  112  A    between atoms: _276  and  _277
REMARK  113  A    between atoms: _276  and  _279
REMARK  114  A    between atoms: _279  and  _280
REMARK  115  A    between atoms: _282  and  _284
REMARK  116  A    between atoms: _284  and  _285
REMARK  117  A    between atoms: _284  and  _287
REMARK  118  A    between atoms: _290  and  _292
REMARK  119  A    between atoms: _292  and  _293
REMARK  120  A    between atoms: _292  and  _295
REMARK  121  A    between atoms: _298  and  _300
REMARK  122  A    between atoms: _300  and  _301
REMARK  123  A    between atoms: _303  and  _305
REMARK  124  A    between atoms: _305  and  _306
REMARK  125  A    between atoms: _305  and  _308
REMARK  126  A    between atoms: _308  and  _309
REMARK  127  A    between atoms: _312  and  _314
REMARK  128  A    between atoms: _314  and  _315
REMARK  129  A    between atoms: _314  and  _317
REMARK  130  A    between atoms: _317  and  _318
REMARK  131  A    between atoms: _318  and  _319
REMARK  132  A    between atoms: _324  and  _326
REMARK  133  A    between atoms: _326  and  _327
REMARK  134  A    between atoms: _326  and  _329
REMARK  135  A    between atoms: _329  and  _330
REMARK  136  A    between atoms: _333  and  _335
REMARK  137  A    between atoms: _335  and  _336
REMARK  138  A    between atoms: _335  and  _338
REMARK  139  A    between atoms: _338  and  _339
REMARK  140  A    between atoms: _342  and  _344
REMARK  141  A    between atoms: _344  and  _345
REMARK  142  A    between atoms: _344  and  _347
REMARK  143  A    between atoms: _347  and  _348
REMARK  144  A    between atoms: _351  and  _353
REMARK  145  A    between atoms: _353  and  _354
REMARK  146  A    between atoms: _353  and  _356
REMARK  147  A    between atoms: _356  and  _357
REMARK  148  A    between atoms: _357  and  _358
REMARK  149  A    between atoms: _358  and  _359
REMARK  150  A    between atoms: _368  and  _370
REMARK  151  A    between atoms: _370  and  _371
REMARK  152  A    between atoms: _370  and  _373
REMARK  153  A    between atoms: _373  and  _374
REMARK  154  A    between atoms: _377  and  _379
REMARK  155  A    between atoms: _379  and  _380
REMARK  156  A    between atoms: _379  and  _382
REMARK  157  A    between atoms: _382  and  _383
REMARK  158  A    between atoms: _386  and  _388
REMARK  159  A    between atoms: _388  and  _389
REMARK  160  A    between atoms: _388  and  _391
REMARK  161  A    between atoms: _393  and  _395
REMARK  162  A    between atoms: _395  and  _396
REMARK  163  A    between atoms: _395  and  _398
REMARK  164  A    between atoms: _398  and  _399
REMARK  165  A    between atoms: _401  and  _403
REMARK  166  A    between atoms: _403  and  _404
REMARK  167  A    between atoms: _407  and  _409
REMARK  168  A    between atoms: _409  and  _410
REMARK  169  A    between atoms: _409  and  _412
REMARK  170  A    between atoms: _412  and  _413
REMARK  171  A    between atoms: _416  and  _418
REMARK  172  A    between atoms: _418  and  _419
REMARK  173  A    between atoms: _418  and  _421
REMARK  174  A    between atoms: _421  and  _422
REMARK  175  A    between atoms: _425  and  _427
REMARK  176  A    between atoms: _427  and  _428
REMARK  177  A    between atoms: _427  and  _430
REMARK  178  A    between atoms: _430  and  _431
REMARK  179  A    between atoms: _431  and  _432
REMARK  180  A    between atoms: _437  and  _439
REMARK  181  A    between atoms: _439  and  _440
REMARK  182  A    between atoms: _439  and  _442
REMARK  183  A    between atoms: _442  and  _443
REMARK  184  A    between atoms: _443  and  _444
REMARK  185  A    between atoms: _444  and  _445
REMARK  186  A    between atoms: _445  and  _446
REMARK  187  A    between atoms: _450  and  _452
REMARK  188  A    between atoms: _452  and  _453
REMARK  189  A    between atoms: _452  and  _455
REMARK  190  A    between atoms: _455  and  _456
REMARK                            x       y       z     vdW  Elec       q    Type
REMARK                         _______ _______ _______ _____ _____    ______ ____
ROOT
ATOM      1  CA  VAL A   4     101.620  20.187   4.672  0.00  0.00    +0.149 C 
ENDROOT
BRANCH   1   3
ATOM      2  C   THR A   3     103.751  21.197   3.907  0.00  0.00    +0.243 C 
ATOM      3  N   VAL A   4     102.599  21.267   4.575  0.00  0.00    -0.297 N 
ATOM      4  H   VAL A   4     102.381  22.158   5.064  0.00  0.00    +0.150 HD
ATOM      5  O   THR A   3     104.126  20.193   3.286  0.00  0.00    -0.273 OA
BRANCH   2   6
ATOM      6  CA  THR A   3     104.595  22.488   3.961  0.00  0.00    +0.176 C 
BRANCH   6   8
ATOM      7  C   PRO A   2     103.367  23.843   5.589  0.00  0.00    +0.241 C 
ATOM      8  N   THR A   3     104.447  23.130   5.268  0.00  0.00    -0.295 N 
ATOM      9  H   THR A   3     105.209  23.027   5.969  0.00  0.00    +0.150 HD
ATOM     10  O   PRO A   2     102.421  24.025   4.818  0.00  0.00    -0.273 OA
BRANCH   7  16
ATOM     11  C   VAL A   1     104.874  26.248   6.340  0.00  0.00    +0.241 C 
ATOM     12  N   PRO A   2     103.743  25.872   6.967  0.00  0.00    -0.272 N 
ATOM     13  CD  PRO A   2     102.778  26.729   7.681  0.00  0.00    +0.094 C 
ATOM     14  CG  PRO A   2     101.880  25.732   8.386  0.00  0.00    +0.024 C 
ATOM     15  CB  PRO A   2     101.945  24.463   7.591  0.00  0.00    +0.031 C 
ATOM     16  CA  PRO A   2     103.353  24.453   6.987  0.00  0.00    +0.152 C 
ATOM     17  O   VAL A   1     105.619  25.431   5.789  0.00  0.00    -0.273 OA
BRANCH  11  18
ATOM     18  CA  VAL A   1     105.232  27.732   6.350  0.00  0.00    +0.145 C 
BRANCH  18  19
ATOM     19  CB  VAL A   1     105.346  28.225   4.880  0.00  0.00    +0.025 C 
ATOM     20  CG2 VAL A   1     106.007  29.602   4.832  0.00  0.00    +0.002 C 
ATOM     21  CG1 VAL A   1     103.964  28.255   4.231  0.00  0.00    +0.002 C 
ENDBRANCH  18  19
BRANCH  18  22
ATOM     22  N   VAL A   1     106.507  27.841   7.054  0.00  0.00    -0.238 NA
ATOM     23  H   VAL A   1     107.374  28.027   6.511  0.00  0.00    +0.142 HD
ENDBRANCH  18  22
ENDBRANCH  11  18
ENDBRANCH   7  16
ENDBRANCH   6   8
BRANCH   6  24
ATOM     24  CB  THR A   3     106.093  22.191   3.660  0.00  0.00    +0.137 C 
ATOM     25  CG2 THR A   3     106.598  23.110   2.542  0.00  0.00    +0.034 C 
BRANCH  24  26
ATOM     26  OG1 THR A   3     106.881  22.423   4.839  0.00  0.00    -0.382 OA
ATOM     27  HG1 THR A   3     106.784  23.368   5.119  0.00  0.00    +0.210 HD
ENDBRANCH  24  26
ENDBRANCH   6  24
ENDBRANCH   2   6
ENDBRANCH   1   3
BRANCH   1  28
ATOM     28  C   VAL A   4     100.244  20.869   4.758  0.00  0.00    +0.241 C 
ATOM     29  O   VAL A   4      99.916  21.471   5.785  0.00  0.00    -0.273 OA
ATOM     30  N   PHE A   5      99.456  20.779   3.683  0.00  0.00    -0.297 N 
ATOM     31  H   PHE A   5      99.803  20.248   2.859  0.00  0.00    +0.150 HD
BRANCH  30  32
ATOM     32  CA  PHE A   5      98.116  21.396   3.607  0.00  0.00    +0.153 C 
BRANCH  32  33
ATOM     33  C   PHE A   5      97.160  21.098   4.776  0.00  0.00    +0.241 C 
ATOM     34  O   PHE A   5      97.385  20.173   5.562  0.00  0.00    -0.273 OA
ATOM     35  N   ASP A   6      96.081  21.875   4.877  0.00  0.00    -0.298 N 
ATOM     36  H   ASP A   6      95.929  22.637   4.185  0.00  0.00    +0.150 HD
BRANCH  35  37
ATOM     37  CA  ASP A   6      95.110  21.668   5.948  0.00  0.00    +0.148 C 
BRANCH  37  38
ATOM     38  C   ASP A   6      93.652  21.928   5.557  0.00  0.00    +0.227 C 
ATOM     39  O   ASP A   6      93.286  21.910   4.379  0.00  0.00    -0.286 OA
ENDBRANCH  37  38
BRANCH  37  40
ATOM     40  CB  ASP A   6      95.472  22.532   7.164  0.00  0.00    +0.142 C 
BRANCH  40  41
ATOM     41  CG  ASP A   6      94.807  22.046   8.447  0.00  0.00    +0.367 C 
ATOM     42  OD2 ASP A   6      95.263  21.027   9.009  0.00  0.00    -0.246 OA
ATOM     43  OD1 ASP A   6      93.826  22.684   8.893  0.00  0.00    -0.246 OA
ENDBRANCH  40  41
ENDBRANCH  37  40
ENDBRANCH  35  37
ENDBRANCH  32  33
BRANCH  32  44
ATOM     44  CB  PHE A   5      97.431  20.984   2.297  0.00  0.00    +0.055 C 
BRANCH  44  45
ATOM     45  CG  PHE A   5      96.785  19.618   2.346  0.00  0.00    -0.020 A 
ATOM     46  CD2 PHE A   5      97.567  18.464   2.382  0.00  0.00    -0.004 A 
ATOM     47  CE2 PHE A   5      96.975  17.198   2.411  0.00  0.00    -0.000 A 
ATOM     48  CZ  PHE A   5      95.583  17.078   2.404  0.00  0.00    -0.000 A 
ATOM     49  CE1 PHE A   5      94.793  18.221   2.371  0.00  0.00    -0.000 A 
ATOM     50  CD1 PHE A   5      95.396  19.485   2.343  0.00  0.00    -0.004 A 
ENDBRANCH  44  45
ENDBRANCH  32  44
ENDBRANCH  30  32
ENDBRANCH   1  28
BRANCH   1  51
ATOM     51  CB  VAL A   4     101.839  19.353   5.960  0.00  0.00    +0.027 C 
ATOM     52  CG2 VAL A   4     103.300  18.930   6.080  0.00  0.00    +0.002 C 
ATOM     53  CG1 VAL A   4     100.930  18.140   5.951  0.00  0.00    +0.002 C 
ENDBRANCH   1  51
TORSDOF 19
REMARK  Name = ../refined-set-2016/1a4r/1a4r_pocket.pdb
REMARK  190 active torsions:
REMARK  status: ('A' for Active; 'I' for Inactive)
REMARK    1  A    between atoms: _1  and  _3
REMARK    2  A    between atoms: _3  and  _4
REMARK    3  A    between atoms: _3  and  _6
REMARK    4  A    between atoms: _9  and  _11
REMARK    5  A    between atoms: _11  and  _12
REMARK    6  A    between atoms: _11  and  _14
REMARK    7  A    between atoms: _17  and  _19
REMARK    8  A    between atoms: _19  and  _20
REMARK    9  A    between atoms: _22  and  _24
REMARK   10  A    between atoms: _24  and  _25
REMARK   11  A    between atoms: _24  and  _27
REMARK   12  A    between atoms: _27  and  _28
REMARK   13  A    between atoms: _31  and  _33
REMARK   14  A    between atoms: _33  and  _34
REMARK   15  A    between atoms: _33  and  _36
REMARK   16  A    between atoms: _39  and  _41
REMARK   17  A    between atoms: _41  and  _42
REMARK   18  A    between atoms: _45  and  _47
REMARK   19  A    between atoms: _47  and  _48
REMARK   20  A    between atoms: _47  and  _50
REMARK   21  A    between atoms: _53  and  _55
REMARK   22  A    between atoms: _55  and  _56
REMARK   23  A    between atoms: _58  and  _60
REMARK   24  A    between atoms: _60  and  _61
REMARK   25  A    between atoms: _60  and  _63
REMARK   26  A    between atoms: _63  and  _64
REMARK   27  A    between atoms: _64  and  _65
REMARK   28  A    between atoms: _65  and  _66
REMARK   29  A    between atoms: _66  and  _67
REMARK   30  A    between atoms: _71  and  _73
REMARK   31  A    between atoms: _73  and  _74
REMARK   32  A    between atoms: _73  and  _76
REMARK   33  A    between atoms: _76  and  _77
REMARK   34  A    between atoms: _80  and  _82
REMARK   35  A    between atoms: _82  and  _83
REMARK   36  A    between atoms: _82  and  _85
REMARK   37  A    between atoms: _87  and  _89
REMARK   38  A    between atoms: _89  and  _90
REMARK   39  A    between atoms: _89  and  _92
REMARK   40  A    between atoms: _92  and  _93
REMARK   41  A    between atoms: _96  and  _98
REMARK   42  A    between atoms: _98  and  _99
REMARK   43  A    between atoms: _98  and  _101
REMARK   44  A    between atoms: _101  and  _102
REMARK   45  A    between atoms: _105  and  _107
REMARK   46  A    between atoms: _107  and  _108
REMARK   47  A    between atoms: _107  and  _110
REMARK   48  A    between atoms: _110  and  _111
REMARK   49  A    between atoms: _114  and  _116
REMARK   50  A    between atoms: _116  and  _117
REMARK   51  A    between atoms: _116  and  _119
REMARK   52  A    between atoms: _119  and  _120
REMARK   53  A    between atoms: _122  and  _124
REMARK   54  A    between atoms: _124  and  _125
REMARK   55  A    between atoms: _124  and  _127
REMARK   56  A    between atoms: _127  and  _128
REMARK   57  A    between atoms: _135  and  _136
REMARK   58  A    between atoms: _141  and  _143
REMARK   59  A    between atoms: _143  and  _144
REMARK   60  A    between atoms: _143  and  _146
REMARK   61  A    between atoms: _146  and  _147
REMARK   62  A    between atoms: _149  and  _151
REMARK   63  A    between atoms: _151  and  _152
REMARK   64  A    between atoms: _151  and  _154
REMARK   65  A    between atoms: _154  and  _155
REMARK   66  A    between atoms: _155  and  _156
REMARK   67  A    between atoms: _159  and  _161
REMARK   68  A    between atoms: _161  and  _162
REMARK   69  A    between atoms: _161  and  _164
REMARK   70  A    between atoms: _168  and  _169
REMARK   71  A    between atoms: _174  and  _176
REMARK   72  A    between atoms: _176  and  _177
REMARK   73  A    between atoms: _176  and  _179
REMARK   74  A    between atoms: _179  and  _180
REMARK   75  A    between atoms: _183  and  _185
REMARK   76  A    between atoms: _185  and  _186
REMARK   77  A    between atoms: _185  and  _188
REMARK   78  A    between atoms: _191  and  _193
REMARK   79  A    between atoms: _193  and  _194
REMARK   80  A    between atoms: _193  and  _196
REMARK   81  A    between atoms: _196  and  _197
REMARK   82  A    between atoms: _203  and  _205
REMARK   83  A    between atoms: _205  and  _206
REMARK   84  A    between atoms: _205  and  _208
REMARK   85  A    between atoms: _208  and  _209
REMARK   86  A    between atoms: _212  and  _214
REMARK   87  A    between atoms: _214  and  _215
REMARK   88  A    between atoms: _214  and  _217
REMARK   89  A    between atoms: _217  and  _218
REMARK   90  A    between atoms: _223  and  _224
REMARK   91  A    between atoms: _226  and  _228
REMARK   92  A    between atoms: _228  and  _229
REMARK   93  A    between atoms: _228  and  _231
REMARK   94  A    between atoms: _231  and  _232
REMARK   95  A    between atoms: _235  and  _237
REMARK   96  A    between atoms: _237  and  _238
REMARK   97  A    between atoms: _237  and  _240
REMARK   98  A    between atoms: _240  and  _241
REMARK   99  A    between atoms: _244  and  _246
REMARK  100  A    between atoms: _246  and  _247
REMARK  101  A    between atoms: _250  and  _252
REMARK  102  A    between atoms: _252  and  _253
REMARK  103  A    between atoms: _255  and  _257
REMARK  104  A    between atoms: _257  and  _258
REMARK  105  A    between atoms: _257  and  _260
REMARK  106  A    between atoms: _260  and  _261
REMARK  107  A    between atoms: _261  and  _262
REMARK  108  A    between atoms: _267  and  _269
REMARK  109  A    between atoms: _269  and  _270
REMARK  110  A    between atoms: _269  and  _272
REMARK  111  A    between atoms: _274  and  _276
REMARK  112  A    between atoms: _276  and  _277
REMARK  113  A    between atoms: _276  and  _279
REMARK  114  A    between atoms: _279  and  _280
REMARK  115  A    between atoms: _282  and  _284
REMARK  116  A    between atoms: _284  and  _285
REMARK  117  A    between atoms: _284  and  _287
REMARK  118  A    between atoms: _290  and  _292
REMARK  119  A    between atoms: _292  and  _293
REMARK  120  A    between atoms: _292  and  _295
REMARK  121  A    between atoms: _298  and  _300
REMARK  122  A    between atoms: _300  and  _301
REMARK  123  A    between atoms: _303  and  _305
REMARK  124  A    between atoms: _305  and  _306
REMARK  125  A    between atoms: _305  and  _308
REMARK  126  A    between atoms: _308  and  _309
REMARK  127  A    between atoms: _312  and  _314
REMARK  128  A    between atoms: _314  and  _315
REMARK  129  A    between atoms: _314  and  _317
REMARK  130  A    between atoms: _317  and  _318
REMARK  131  A    between atoms: _318  and  _319
REMARK  132  A    between atoms: _324  and  _326
REMARK  133  A    between atoms: _326  and  _327
REMARK  134  A    between atoms: _326  and  _329
REMARK  135  A    between atoms: _329  and  _330
REMARK  136  A    between atoms: _333  and  _335
REMARK  137  A    between atoms: _335  and  _336
REMARK  138  A    between atoms: _335  and  _338
REMARK  139  A    between atoms: _338  and  _339
REMARK  140  A    between atoms: _342  and  _344
REMARK  141  A    between atoms: _344  and  _345
REMARK  142  A    between atoms: _344  and  _347
REMARK  143  A    between atoms: _347  and  _348
REMARK  144  A    between atoms: _351  and  _353
REMARK  145  A    between atoms: _353  and  _354
REMARK  146  A    between atoms: _353  and  _356
REMARK  147  A    between atoms: _356  and  _357
REMARK  148  A    between atoms: _357  and  _358
REMARK  149  A    between atoms: _358  and  _359
REMARK  150  A    between atoms: _368  and  _370
REMARK  151  A    between atoms: _370  and  _371
REMARK  152  A    between atoms: _370  and  _373
REMARK  153  A    between atoms: _373  and  _374
REMARK  154  A    between atoms: _377  and  _379
REMARK  155  A    between atoms: _379  and  _380
REMARK  156  A    between atoms: _379  and  _382
REMARK  157  A    between atoms: _382  and  _383
REMARK  158  A    between atoms: _386  and  _388
REMARK  159  A    between atoms: _388  and  _389
REMARK  160  A    between atoms: _388  and  _391
REMARK  161  A    between atoms: _393  and  _395
REMARK  162  A    between atoms: _395  and  _396
REMARK  163  A    between atoms: _395  and  _398
REMARK  164  A    between atoms: _398  and  _399
REMARK  165  A    between atoms: _401  and  _403
REMARK  166  A    between atoms: _403  and  _404
REMARK  167  A    between atoms: _407  and  _409
REMARK  168  A    between atoms: _409  and  _410
REMARK  169  A    between atoms: _409  and  _412
REMARK  170  A    between atoms: _412  and  _413
REMARK  171  A    between atoms: _416  and  _418
REMARK  172  A    between atoms: _418  and  _419
REMARK  173  A    between atoms: _418  and  _421
REMARK  174  A    between atoms: _421  and  _422
REMARK  175  A    between atoms: _425  and  _427
REMARK  176  A    between atoms: _427  and  _428
REMARK  177  A    between atoms: _427  and  _430
REMARK  178  A    between atoms: _430  and  _431
REMARK  179  A    between atoms: _431  and  _432
REMARK  180  A    between atoms: _437  and  _439
REMARK  181  A    between atoms: _439  and  _440
REMARK  182  A    between atoms: _439  and  _442
REMARK  183  A    between atoms: _442  and  _443
REMARK  184  A    between atoms: _443  and  _444
REMARK  185  A    between atoms: _444  and  _445
REMARK  186  A    between atoms: _445  and  _446
REMARK  187  A    between atoms: _450  and  _452
REMARK  188  A    between atoms: _452  and  _453
REMARK  189  A    between atoms: _452  and  _455
REMARK  190  A    between atoms: _455  and  _456
REMARK                            x       y       z     vdW  Elec       q    Type
REMARK                         _______ _______ _______ _____ _____    ______ ____
ROOT
ATOM      1  CG  TYR A   1      92.338  26.716   6.941  0.00  0.00    -0.020 A 
ATOM      2  CD2 TYR A   1      93.510  27.171   7.546  0.00  0.00    -0.001 A 
ATOM      3  CE2 TYR A   1      94.757  26.927   6.975  0.00  0.00    +0.036 A 
ATOM      4  CZ  TYR A   1      94.835  26.222   5.788  0.00  0.00    +0.134 A 
ATOM      5  CE1 TYR A   1      93.687  25.764   5.170  0.00  0.00    +0.036 A 
ATOM      6  CD1 TYR A   1      92.453  26.012   5.744  0.00  0.00    -0.001 A 
ENDROOT
BRANCH   4   7
ATOM      7  OH  TYR A   1      96.059  25.957   5.215  0.00  0.00    -0.506 OA
ATOM      8  HH  TYR A   1      95.926  25.447   4.377  0.00  0.00    +0.292 HD
ENDBRANCH   4   7
BRANCH   1   9
ATOM      9  CB  TYR A   1      90.979  26.980   7.571  0.00  0.00    +0.051 C 
BRANCH   9  10
ATOM     10  CA  TYR A   1      90.164  25.722   7.898  0.00  0.00    +0.137 C 
BRANCH  10  11
ATOM     11  N   TYR A   1      90.538  24.629   7.008  0.00  0.00    -0.239 NA
ATOM     12  H   TYR A   1      90.433  24.751   5.981  0.00  0.00    +0.142 HD
ENDBRANCH  10  11
BRANCH  10  13
ATOM     13  C   TYR A   1      88.689  26.081   7.873  0.00  0.00    +0.224 C 
ATOM     14  O   TYR A   1      87.947  25.713   6.958  0.00  0.00    -0.287 OA
ENDBRANCH  10  13
ENDBRANCH   9  10
ENDBRANCH   1   9
TORSDOF 5
REMARK  Name = ../refined-set-2016/1a4r/1a4r_pocket.pdb
REMARK  190 active torsions:
REMARK  status: ('A' for Active; 'I' for Inactive)
REMARK    1  A    between atoms: _1  and  _3
REMARK    2  A    between atoms: _3  and  _4
REMARK    3  A    between atoms: _3  and  _6
REMARK    4  A    between atoms: _9  and  _11
REMARK    5  A    between atoms: _11  and  _12
REMARK    6  A    between atoms: _11  and  _14
REMARK    7  A    between atoms: _17  and  _19
REMARK    8  A    between atoms: _19  and  _20
REMARK    9  A    between atoms: _22  and  _24
REMARK   10  A    between atoms: _24  and  _25
REMARK   11  A    between atoms: _24  and  _27
REMARK   12  A    between atoms: _27  and  _28
REMARK   13  A    between atoms: _31  and  _33
REMARK   14  A    between atoms: _33  and  _34
REMARK   15  A    between atoms: _33  and  _36
REMARK   16  A    between atoms: _39  and  _41
REMARK   17  A    between atoms: _41  and  _42
REMARK   18  A    between atoms: _45  and  _47
REMARK   19  A    between atoms: _47  and  _48
REMARK   20  A    between atoms: _47  and  _50
REMARK   21  A    between atoms: _53  and  _55
REMARK   22  A    between atoms: _55  and  _56
REMARK   23  A    between atoms: _58  and  _60
REMARK   24  A    between atoms: _60  and  _61
REMARK   25  A    between atoms: _60  and  _63
REMARK   26  A    between atoms: _63  and  _64
REMARK   27  A    between atoms: _64  and  _65
REMARK   28  A    between atoms: _65  and  _66
REMARK   29  A    between atoms: _66  and  _67
REMARK   30  A    between atoms: _71  and  _73
REMARK   31  A    between atoms: _73  and  _74
REMARK   32  A    between atoms: _73  and  _76
REMARK   33  A    between atoms: _76  and  _77
REMARK   34  A    between atoms: _80  and  _82
REMARK   35  A    between atoms: _82  and  _83
REMARK   36  A    between atoms: _82  and  _85
REMARK   37  A    between atoms: _87  and  _89
REMARK   38  A    between atoms: _89  and  _90
REMARK   39  A    between atoms: _89  and  _92
REMARK   40  A    between atoms: _92  and  _93
REMARK   41  A    between atoms: _96  and  _98
REMARK   42  A    between atoms: _98  and  _99
REMARK   43  A    between atoms: _98  and  _101
REMARK   44  A    between atoms: _101  and  _102
REMARK   45  A    between atoms: _105  and  _107
REMARK   46  A    between atoms: _107  and  _108
REMARK   47  A    between atoms: _107  and  _110
REMARK   48  A    between atoms: _110  and  _111
REMARK   49  A    between atoms: _114  and  _116
REMARK   50  A    between atoms: _116  and  _117
REMARK   51  A    between atoms: _116  and  _119
REMARK   52  A    between atoms: _119  and  _120
REMARK   53  A    between atoms: _122  and  _124
REMARK   54  A    between atoms: _124  and  _125
REMARK   55  A    between atoms: _124  and  _127
REMARK   56  A    between atoms: _127  and  _128
REMARK   57  A    between atoms: _135  and  _136
REMARK   58  A    between atoms: _141  and  _143
REMARK   59  A    between atoms: _143  and  _144
REMARK   60  A    between atoms: _143  and  _146
REMARK   61  A    between atoms: _146  and  _147
REMARK   62  A    between atoms: _149  and  _151
REMARK   63  A    between atoms: _151  and  _152
REMARK   64  A    between atoms: _151  and  _154
REMARK   65  A    between atoms: _154  and  _155
REMARK   66  A    between atoms: _155  and  _156
REMARK   67  A    between atoms: _159  and  _161
REMARK   68  A    between atoms: _161  and  _162
REMARK   69  A    between atoms: _161  and  _164
REMARK   70  A    between atoms: _168  and  _169
REMARK   71  A    between atoms: _174  and  _176
REMARK   72  A    between atoms: _176  and  _177
REMARK   73  A    between atoms: _176  and  _179
REMARK   74  A    between atoms: _179  and  _180
REMARK   75  A    between atoms: _183  and  _185
REMARK   76  A    between atoms: _185  and  _186
REMARK   77  A    between atoms: _185  and  _188
REMARK   78  A    between atoms: _191  and  _193
REMARK   79  A    between atoms: _193  and  _194
REMARK   80  A    between atoms: _193  and  _196
REMARK   81  A    between atoms: _196  and  _197
REMARK   82  A    between atoms: _203  and  _205
REMARK   83  A    between atoms: _205  and  _206
REMARK   84  A    between atoms: _205  and  _208
REMARK   85  A    between atoms: _208  and  _209
REMARK   86  A    between atoms: _212  and  _214
REMARK   87  A    between atoms: _214  and  _215
REMARK   88  A    between atoms: _214  and  _217
REMARK   89  A    between atoms: _217  and  _218
REMARK   90  A    between atoms: _223  and  _224
REMARK   91  A    between atoms: _226  and  _228
REMARK   92  A    between atoms: _228  and  _229
REMARK   93  A    between atoms: _228  and  _231
REMARK   94  A    between atoms: _231  and  _232
REMARK   95  A    between atoms: _235  and  _237
REMARK   96  A    between atoms: _237  and  _238
REMARK   97  A    between atoms: _237  and  _240
REMARK   98  A    between atoms: _240  and  _241
REMARK   99  A    between atoms: _244  and  _246
REMARK  100  A    between atoms: _246  and  _247
REMARK  101  A    between atoms: _250  and  _252
REMARK  102  A    between atoms: _252  and  _253
REMARK  103  A    between atoms: _255  and  _257
REMARK  104  A    between atoms: _257  and  _258
REMARK  105  A    between atoms: _257  and  _260
REMARK  106  A    between atoms: _260  and  _261
REMARK  107  A    between atoms: _261  and  _262
REMARK  108  A    between atoms: _267  and  _269
REMARK  109  A    between atoms: _269  and  _270
REMARK  110  A    between atoms: _269  and  _272
REMARK  111  A    between atoms: _274  and  _276
REMARK  112  A    between atoms: _276  and  _277
REMARK  113  A    between atoms: _276  and  _279
REMARK  114  A    between atoms: _279  and  _280
REMARK  115  A    between atoms: _282  and  _284
REMARK  116  A    between atoms: _284  and  _285
REMARK  117  A    between atoms: _284  and  _287
REMARK  118  A    between atoms: _290  and  _292
REMARK  119  A    between atoms: _292  and  _293
REMARK  120  A    between atoms: _292  and  _295
REMARK  121  A    between atoms: _298  and  _300
REMARK  122  A    between atoms: _300  and  _301
REMARK  123  A    between atoms: _303  and  _305
REMARK  124  A    between atoms: _305  and  _306
REMARK  125  A    between atoms: _305  and  _308
REMARK  126  A    between atoms: _308  and  _309
REMARK  127  A    between atoms: _312  and  _314
REMARK  128  A    between atoms: _314  and  _315
REMARK  129  A    between atoms: _314  and  _317
REMARK  130  A    between atoms: _317  and  _318
REMARK  131  A    between atoms: _318  and  _319
REMARK  132  A    between atoms: _324  and  _326
REMARK  133  A    between atoms: _326  and  _327
REMARK  134  A    between atoms: _326  and  _329
REMARK  135  A    between atoms: _329  and  _330
REMARK  136  A    between atoms: _333  and  _335
REMARK  137  A    between atoms: _335  and  _336
REMARK  138  A    between atoms: _335  and  _338
REMARK  139  A    between atoms: _338  and  _339
REMARK  140  A    between atoms: _342  and  _344
REMARK  141  A    between atoms: _344  and  _345
REMARK  142  A    between atoms: _344  and  _347
REMARK  143  A    between atoms: _347  and  _348
REMARK  144  A    between atoms: _351  and  _353
REMARK  145  A    between atoms: _353  and  _354
REMARK  146  A    between atoms: _353  and  _356
REMARK  147  A    between atoms: _356  and  _357
REMARK  148  A    between atoms: _357  and  _358
REMARK  149  A    between atoms: _358  and  _359
REMARK  150  A    between atoms: _368  and  _370
REMARK  151  A    between atoms: _370  and  _371
REMARK  152  A    between atoms: _370  and  _373
REMARK  153  A    between atoms: _373  and  _374
REMARK  154  A    between atoms: _377  and  _379
REMARK  155  A    between atoms: _379  and  _380
REMARK  156  A    between atoms: _379  and  _382
REMARK  157  A    between atoms: _382  and  _383
REMARK  158  A    between atoms: _386  and  _388
REMARK  159  A    between atoms: _388  and  _389
REMARK  160  A    between atoms: _388  and  _391
REMARK  161  A    between atoms: _393  and  _395
REMARK  162  A    between atoms: _395  and  _396
REMARK  163  A    between atoms: _395  and  _398
REMARK  164  A    between atoms: _398  and  _399
REMARK  165  A    between atoms: _401  and  _403
REMARK  166  A    between atoms: _403  and  _404
REMARK  167  A    between atoms: _407  and  _409
REMARK  168  A    between atoms: _409  and  _410
REMARK  169  A    between atoms: _409  and  _412
REMARK  170  A    between atoms: _412  and  _413
REMARK  171  A    between atoms: _416  and  _418
REMARK  172  A    between atoms: _418  and  _419
REMARK  173  A    between atoms: _418  and  _421
REMARK  174  A    between atoms: _421  and  _422
REMARK  175  A    between atoms: _425  and  _427
REMARK  176  A    between atoms: _427  and  _428
REMARK  177  A    between atoms: _427  and  _430
REMARK  178  A    between atoms: _430  and  _431
REMARK  179  A    between atoms: _431  and  _432
REMARK  180  A    between atoms: _437  and  _439
REMARK  181  A    between atoms: _439  and  _440
REMARK  182  A    between atoms: _439  and  _442
REMARK  183  A    between atoms: _442  and  _443
REMARK  184  A    between atoms: _443  and  _444
REMARK  185  A    between atoms: _444  and  _445
REMARK  186  A    between atoms: _445  and  _446
REMARK  187  A    between atoms: _450  and  _452
REMARK  188  A    between atoms: _452  and  _453
REMARK  189  A    between atoms: _452  and  _455
REMARK  190  A    between atoms: _455  and  _456
REMARK                            x       y       z     vdW  Elec       q    Type
REMARK                         _______ _______ _______ _____ _____    ______ ____
ROOT
ATOM      1  CA  ALA A   3      97.914  19.080  -3.286  0.00  0.00    +0.149 C 
ATOM      2  CB  ALA A   3      98.383  17.724  -2.788  0.00  0.00    +0.031 C 
ENDROOT
BRANCH   1   5
ATOM      3  C   THR A   2      96.218  20.564  -2.323  0.00  0.00    +0.243 C 
ATOM      4  O   THR A   2      96.996  21.526  -2.267  0.00  0.00    -0.273 OA
ATOM      5  N   ALA A   3      96.569  19.363  -2.783  0.00  0.00    -0.297 N 
ATOM      6  H   ALA A   3      95.862  18.600  -2.784  0.00  0.00    +0.150 HD
BRANCH   3   7
ATOM      7  CA  THR A   2      94.770  20.696  -1.851  0.00  0.00    +0.176 C 
BRANCH   7  10
ATOM      8  C   ASP A   1      93.739  21.977  -0.060  0.00  0.00    +0.239 C 
ATOM      9  O   ASP A   1      93.101  20.999   0.329  0.00  0.00    -0.274 OA
ATOM     10  N   THR A   2      94.556  21.936  -1.108  0.00  0.00    -0.295 N 
ATOM     11  H   THR A   2      95.051  22.801  -1.404  0.00  0.00    +0.150 HD
BRANCH   8  12
ATOM     12  CA  ASP A   1      93.596  23.313   0.655  0.00  0.00    +0.156 C 
BRANCH  12  13
ATOM     13  N   ASP A   1      92.377  23.250   1.446  0.00  0.00    -0.238 NA
ATOM     14  H   ASP A   1      92.440  23.084   2.471  0.00  0.00    +0.142 HD
ENDBRANCH  12  13
BRANCH  12  15
ATOM     15  CB  ASP A   1      94.808  23.543   1.552  0.00  0.00    +0.140 C 
BRANCH  15  16
ATOM     16  CG  ASP A   1      95.976  24.164   0.804  0.00  0.00    +0.367 C 
ATOM     17  OD2 ASP A   1      97.021  24.449   1.436  0.00  0.00    -0.246 OA
ATOM     18  OD1 ASP A   1      95.850  24.367  -0.423  0.00  0.00    -0.246 OA
ENDBRANCH  15  16
ENDBRANCH  12  15
ENDBRANCH   8  12
ENDBRANCH   7  10
BRANCH   7  19
ATOM     19  CB  THR A   2      93.860  20.604  -3.095  0.00  0.00    +0.137 C 
ATOM     20  CG2 THR A   2      92.402  20.380  -2.698  0.00  0.00    +0.034 C 
BRANCH  19  21
ATOM     21  OG1 THR A   2      93.971  21.813  -3.845  0.00  0.00    -0.382 OA
ATOM     22  HG1 THR A   2      93.689  22.577  -3.281  0.00  0.00    +0.210 HD
ENDBRANCH  19  21
ENDBRANCH   7  19
ENDBRANCH   3   7
ENDBRANCH   1   5
BRANCH   1  23
ATOM     23  C   ALA A   3      97.884  19.103  -4.817  0.00  0.00    +0.241 C 
ATOM     24  N   GLY A   4      98.695  19.991  -5.402  0.00  0.00    -0.295 N 
ATOM     25  H   GLY A   4      99.303  20.589  -4.807  0.00  0.00    +0.150 HD
ATOM     26  O   ALA A   3      97.150  18.325  -5.446  0.00  0.00    -0.273 OA
BRANCH  24  27
ATOM     27  CA  GLY A   4      98.751  20.144  -6.852  0.00  0.00    +0.176 C 
BRANCH  27  28
ATOM     28  C   GLY A   4      99.646  19.210  -7.661  0.00  0.00    +0.243 C 
ATOM     29  N   GLN A   5     100.342  18.290  -6.991  0.00  0.00    -0.298 N 
ATOM     30  H   GLN A   5     100.260  18.248  -5.955  0.00  0.00    +0.150 HD
ATOM     31  O   GLY A   4      99.704  19.330  -8.892  0.00  0.00    -0.273 OA
BRANCH  29  32
ATOM     32  CA  GLN A   5     101.219  17.337  -7.676  0.00  0.00    +0.137 C 
BRANCH  32  33
ATOM     33  C   GLN A   5     100.393  16.335  -8.475  0.00  0.00    +0.227 C 
ATOM     34  O   GLN A   5      99.276  15.985  -8.087  0.00  0.00    -0.286 OA
ENDBRANCH  32  33
BRANCH  32  35
ATOM     35  CB  GLN A   5     102.096  16.576  -6.673  0.00  0.00    +0.037 C 
BRANCH  35  36
ATOM     36  CG  GLN A   5     101.825  16.894  -5.221  0.00  0.00    +0.087 C 
BRANCH  36  37
ATOM     37  CD  GLN A   5     102.597  18.103  -4.743  0.00  0.00    +0.219 C 
ATOM     38  OE1 GLN A   5     102.009  19.105  -4.332  0.00  0.00    -0.275 OA
ATOM     39  NE2 GLN A   5     103.921  18.019  -4.791  0.00  0.00    -0.329 N 
ATOM     40 HE21 GLN A   5     104.505  18.819  -4.474  0.00  0.00    +0.145 HD
ATOM     41 HE22 GLN A   5     104.375  17.153  -5.146  0.00  0.00    +0.145 HD
ENDBRANCH  36  37
ENDBRANCH  35  36
ENDBRANCH  32  35
ENDBRANCH  29  32
ENDBRANCH  27  28
ENDBRANCH  24  27
ENDBRANCH   1  23
TORSDOF 17
REMARK  Name = ../refined-set-2016/1a4r/1a4r_pocket.pdb
REMARK  190 active torsions:
REMARK  status: ('A' for Active; 'I' for Inactive)
REMARK    1  A    between atoms: _1  and  _3
REMARK    2  A    between atoms: _3  and  _4
REMARK    3  A    between atoms: _3  and  _6
REMARK    4  A    between atoms: _9  and  _11
REMARK    5  A    between atoms: _11  and  _12
REMARK    6  A    between atoms: _11  and  _14
REMARK    7  A    between atoms: _17  and  _19
REMARK    8  A    between atoms: _19  and  _20
REMARK    9  A    between atoms: _22  and  _24
REMARK   10  A    between atoms: _24  and  _25
REMARK   11  A    between atoms: _24  and  _27
REMARK   12  A    between atoms: _27  and  _28
REMARK   13  A    between atoms: _31  and  _33
REMARK   14  A    between atoms: _33  and  _34
REMARK   15  A    between atoms: _33  and  _36
REMARK   16  A    between atoms: _39  and  _41
REMARK   17  A    between atoms: _41  and  _42
REMARK   18  A    between atoms: _45  and  _47
REMARK   19  A    between atoms: _47  and  _48
REMARK   20  A    between atoms: _47  and  _50
REMARK   21  A    between atoms: _53  and  _55
REMARK   22  A    between atoms: _55  and  _56
REMARK   23  A    between atoms: _58  and  _60
REMARK   24  A    between atoms: _60  and  _61
REMARK   25  A    between atoms: _60  and  _63
REMARK   26  A    between atoms: _63  and  _64
REMARK   27  A    between atoms: _64  and  _65
REMARK   28  A    between atoms: _65  and  _66
REMARK   29  A    between atoms: _66  and  _67
REMARK   30  A    between atoms: _71  and  _73
REMARK   31  A    between atoms: _73  and  _74
REMARK   32  A    between atoms: _73  and  _76
REMARK   33  A    between atoms: _76  and  _77
REMARK   34  A    between atoms: _80  and  _82
REMARK   35  A    between atoms: _82  and  _83
REMARK   36  A    between atoms: _82  and  _85
REMARK   37  A    between atoms: _87  and  _89
REMARK   38  A    between atoms: _89  and  _90
REMARK   39  A    between atoms: _89  and  _92
REMARK   40  A    between atoms: _92  and  _93
REMARK   41  A    between atoms: _96  and  _98
REMARK   42  A    between atoms: _98  and  _99
REMARK   43  A    between atoms: _98  and  _101
REMARK   44  A    between atoms: _101  and  _102
REMARK   45  A    between atoms: _105  and  _107
REMARK   46  A    between atoms: _107  and  _108
REMARK   47  A    between atoms: _107  and  _110
REMARK   48  A    between atoms: _110  and  _111
REMARK   49  A    between atoms: _114  and  _116
REMARK   50  A    between atoms: _116  and  _117
REMARK   51  A    between atoms: _116  and  _119
REMARK   52  A    between atoms: _119  and  _120
REMARK   53  A    between atoms: _122  and  _124
REMARK   54  A    between atoms: _124  and  _125
REMARK   55  A    between atoms: _124  and  _127
REMARK   56  A    between atoms: _127  and  _128
REMARK   57  A    between atoms: _135  and  _136
REMARK   58  A    between atoms: _141  and  _143
REMARK   59  A    between atoms: _143  and  _144
REMARK   60  A    between atoms: _143  and  _146
REMARK   61  A    between atoms: _146  and  _147
REMARK   62  A    between atoms: _149  and  _151
REMARK   63  A    between atoms: _151  and  _152
REMARK   64  A    between atoms: _151  and  _154
REMARK   65  A    between atoms: _154  and  _155
REMARK   66  A    between atoms: _155  and  _156
REMARK   67  A    between atoms: _159  and  _161
REMARK   68  A    between atoms: _161  and  _162
REMARK   69  A    between atoms: _161  and  _164
REMARK   70  A    between atoms: _168  and  _169
REMARK   71  A    between atoms: _174  and  _176
REMARK   72  A    between atoms: _176  and  _177
REMARK   73  A    between atoms: _176  and  _179
REMARK   74  A    between atoms: _179  and  _180
REMARK   75  A    between atoms: _183  and  _185
REMARK   76  A    between atoms: _185  and  _186
REMARK   77  A    between atoms: _185  and  _188
REMARK   78  A    between atoms: _191  and  _193
REMARK   79  A    between atoms: _193  and  _194
REMARK   80  A    between atoms: _193  and  _196
REMARK   81  A    between atoms: _196  and  _197
REMARK   82  A    between atoms: _203  and  _205
REMARK   83  A    between atoms: _205  and  _206
REMARK   84  A    between atoms: _205  and  _208
REMARK   85  A    between atoms: _208  and  _209
REMARK   86  A    between atoms: _212  and  _214
REMARK   87  A    between atoms: _214  and  _215
REMARK   88  A    between atoms: _214  and  _217
REMARK   89  A    between atoms: _217  and  _218
REMARK   90  A    between atoms: _223  and  _224
REMARK   91  A    between atoms: _226  and  _228
REMARK   92  A    between atoms: _228  and  _229
REMARK   93  A    between atoms: _228  and  _231
REMARK   94  A    between atoms: _231  and  _232
REMARK   95  A    between atoms: _235  and  _237
REMARK   96  A    between atoms: _237  and  _238
REMARK   97  A    between atoms: _237  and  _240
REMARK   98  A    between atoms: _240  and  _241
REMARK   99  A    between atoms: _244  and  _246
REMARK  100  A    between atoms: _246  and  _247
REMARK  101  A    between atoms: _250  and  _252
REMARK  102  A    between atoms: _252  and  _253
REMARK  103  A    between atoms: _255  and  _257
REMARK  104  A    between atoms: _257  and  _258
REMARK  105  A    between atoms: _257  and  _260
REMARK  106  A    between atoms: _260  and  _261
REMARK  107  A    between atoms: _261  and  _262
REMARK  108  A    between atoms: _267  and  _269
REMARK  109  A    between atoms: _269  and  _270
REMARK  110  A    between atoms: _269  and  _272
REMARK  111  A    between atoms: _274  and  _276
REMARK  112  A    between atoms: _276  and  _277
REMARK  113  A    between atoms: _276  and  _279
REMARK  114  A    between atoms: _279  and  _280
REMARK  115  A    between atoms: _282  and  _284
REMARK  116  A    between atoms: _284  and  _285
REMARK  117  A    between atoms: _284  and  _287
REMARK  118  A    between atoms: _290  and  _292
REMARK  119  A    between atoms: _292  and  _293
REMARK  120  A    between atoms: _292  and  _295
REMARK  121  A    between atoms: _298  and  _300
REMARK  122  A    between atoms: _300  and  _301
REMARK  123  A    between atoms: _303  and  _305
REMARK  124  A    between atoms: _305  and  _306
REMARK  125  A    between atoms: _305  and  _308
REMARK  126  A    between atoms: _308  and  _309
REMARK  127  A    between atoms: _312  and  _314
REMARK  128  A    between atoms: _314  and  _315
REMARK  129  A    between atoms: _314  and  _317
REMARK  130  A    between atoms: _317  and  _318
REMARK  131  A    between atoms: _318  and  _319
REMARK  132  A    between atoms: _324  and  _326
REMARK  133  A    between atoms: _326  and  _327
REMARK  134  A    between atoms: _326  and  _329
REMARK  135  A    between atoms: _329  and  _330
REMARK  136  A    between atoms: _333  and  _335
REMARK  137  A    between atoms: _335  and  _336
REMARK  138  A    between atoms: _335  and  _338
REMARK  139  A    between atoms: _338  and  _339
REMARK  140  A    between atoms: _342  and  _344
REMARK  141  A    between atoms: _344  and  _345
REMARK  142  A    between atoms: _344  and  _347
REMARK  143  A    between atoms: _347  and  _348
REMARK  144  A    between atoms: _351  and  _353
REMARK  145  A    between atoms: _353  and  _354
REMARK  146  A    between atoms: _353  and  _356
REMARK  147  A    between atoms: _356  and  _357
REMARK  148  A    between atoms: _357  and  _358
REMARK  149  A    between atoms: _358  and  _359
REMARK  150  A    between atoms: _368  and  _370
REMARK  151  A    between atoms: _370  and  _371
REMARK  152  A    between atoms: _370  and  _373
REMARK  153  A    between atoms: _373  and  _374
REMARK  154  A    between atoms: _377  and  _379
REMARK  155  A    between atoms: _379  and  _380
REMARK  156  A    between atoms: _379  and  _382
REMARK  157  A    between atoms: _382  and  _383
REMARK  158  A    between atoms: _386  and  _388
REMARK  159  A    between atoms: _388  and  _389
REMARK  160  A    between atoms: _388  and  _391
REMARK  161  A    between atoms: _393  and  _395
REMARK  162  A    between atoms: _395  and  _396
REMARK  163  A    between atoms: _395  and  _398
REMARK  164  A    between atoms: _398  and  _399
REMARK  165  A    between atoms: _401  and  _403
REMARK  166  A    between atoms: _403  and  _404
REMARK  167  A    between atoms: _407  and  _409
REMARK  168  A    between atoms: _409  and  _410
REMARK  169  A    between atoms: _409  and  _412
REMARK  170  A    between atoms: _412  and  _413
REMARK  171  A    between atoms: _416  and  _418
REMARK  172  A    between atoms: _418  and  _419
REMARK  173  A    between atoms: _418  and  _421
REMARK  174  A    between atoms: _421  and  _422
REMARK  175  A    between atoms: _425  and  _427
REMARK  176  A    between atoms: _427  and  _428
REMARK  177  A    between atoms: _427  and  _430
REMARK  178  A    between atoms: _430  and  _431
REMARK  179  A    between atoms: _431  and  _432
REMARK  180  A    between atoms: _437  and  _439
REMARK  181  A    between atoms: _439  and  _440
REMARK  182  A    between atoms: _439  and  _442
REMARK  183  A    between atoms: _442  and  _443
REMARK  184  A    between atoms: _443  and  _444
REMARK  185  A    between atoms: _444  and  _445
REMARK  186  A    between atoms: _445  and  _446
REMARK  187  A    between atoms: _450  and  _452
REMARK  188  A    between atoms: _452  and  _453
REMARK  189  A    between atoms: _452  and  _455
REMARK  190  A    between atoms: _455  and  _456
REMARK                            x       y       z     vdW  Elec       q    Type
REMARK                         _______ _______ _______ _____ _____    ______ ____
ROOT
ATOM      1  CA  CYS A   1      94.701  29.709  -8.519  0.00  0.00    +0.145 C 
ENDROOT
BRANCH   1   2
ATOM      2  N   CYS A   1      93.594  28.781  -8.661  0.00  0.00    -0.238 NA
ATOM      3  H   CYS A   1      93.663  27.834  -8.236  0.00  0.00    +0.142 HD
ENDBRANCH   1   2
BRANCH   1   4
ATOM      4  CB  CYS A   1      95.158  29.739  -7.057  0.00  0.00    +0.094 C 
ATOM      5  SG  CYS A   1      93.820  29.528  -5.867  0.00  0.00    -0.080 S 
ENDBRANCH   1   4
BRANCH   1   6
ATOM      6  C   CYS A   1      95.917  29.487  -9.402  0.00  0.00    +0.225 C 
ATOM      7  O   CYS A   1      96.285  28.359  -9.733  0.00  0.00    -0.287 OA
ENDBRANCH   1   6
TORSDOF 3
REMARK  Name = ../refined-set-2016/1a4r/1a4r_pocket.pdb
REMARK  190 active torsions:
REMARK  status: ('A' for Active; 'I' for Inactive)
REMARK    1  A    between atoms: _1  and  _3
REMARK    2  A    between atoms: _3  and  _4
REMARK    3  A    between atoms: _3  and  _6
REMARK    4  A    between atoms: _9  and  _11
REMARK    5  A    between atoms: _11  and  _12
REMARK    6  A    between atoms: _11  and  _14
REMARK    7  A    between atoms: _17  and  _19
REMARK    8  A    between atoms: _19  and  _20
REMARK    9  A    between atoms: _22  and  _24
REMARK   10  A    between atoms: _24  and  _25
REMARK   11  A    between atoms: _24  and  _27
REMARK   12  A    between atoms: _27  and  _28
REMARK   13  A    between atoms: _31  and  _33
REMARK   14  A    between atoms: _33  and  _34
REMARK   15  A    between atoms: _33  and  _36
REMARK   16  A    between atoms: _39  and  _41
REMARK   17  A    between atoms: _41  and  _42
REMARK   18  A    between atoms: _45  and  _47
REMARK   19  A    between atoms: _47  and  _48
REMARK   20  A    between atoms: _47  and  _50
REMARK   21  A    between atoms: _53  and  _55
REMARK   22  A    between atoms: _55  and  _56
REMARK   23  A    between atoms: _58  and  _60
REMARK   24  A    between atoms: _60  and  _61
REMARK   25  A    between atoms: _60  and  _63
REMARK   26  A    between atoms: _63  and  _64
REMARK   27  A    between atoms: _64  and  _65
REMARK   28  A    between atoms: _65  and  _66
REMARK   29  A    between atoms: _66  and  _67
REMARK   30  A    between atoms: _71  and  _73
REMARK   31  A    between atoms: _73  and  _74
REMARK   32  A    between atoms: _73  and  _76
REMARK   33  A    between atoms: _76  and  _77
REMARK   34  A    between atoms: _80  and  _82
REMARK   35  A    between atoms: _82  and  _83
REMARK   36  A    between atoms: _82  and  _85
REMARK   37  A    between atoms: _87  and  _89
REMARK   38  A    between atoms: _89  and  _90
REMARK   39  A    between atoms: _89  and  _92
REMARK   40  A    between atoms: _92  and  _93
REMARK   41  A    between atoms: _96  and  _98
REMARK   42  A    between atoms: _98  and  _99
REMARK   43  A    between atoms: _98  and  _101
REMARK   44  A    between atoms: _101  and  _102
REMARK   45  A    between atoms: _105  and  _107
REMARK   46  A    between atoms: _107  and  _108
REMARK   47  A    between atoms: _107  and  _110
REMARK   48  A    between atoms: _110  and  _111
REMARK   49  A    between atoms: _114  and  _116
REMARK   50  A    between atoms: _116  and  _117
REMARK   51  A    between atoms: _116  and  _119
REMARK   52  A    between atoms: _119  and  _120
REMARK   53  A    between atoms: _122  and  _124
REMARK   54  A    between atoms: _124  and  _125
REMARK   55  A    between atoms: _124  and  _127
REMARK   56  A    between atoms: _127  and  _128
REMARK   57  A    between atoms: _135  and  _136
REMARK   58  A    between atoms: _141  and  _143
REMARK   59  A    between atoms: _143  and  _144
REMARK   60  A    between atoms: _143  and  _146
REMARK   61  A    between atoms: _146  and  _147
REMARK   62  A    between atoms: _149  and  _151
REMARK   63  A    between atoms: _151  and  _152
REMARK   64  A    between atoms: _151  and  _154
REMARK   65  A    between atoms: _154  and  _155
REMARK   66  A    between atoms: _155  and  _156
REMARK   67  A    between atoms: _159  and  _161
REMARK   68  A    between atoms: _161  and  _162
REMARK   69  A    between atoms: _161  and  _164
REMARK   70  A    between atoms: _168  and  _169
REMARK   71  A    between atoms: _174  and  _176
REMARK   72  A    between atoms: _176  and  _177
REMARK   73  A    between atoms: _176  and  _179
REMARK   74  A    between atoms: _179  and  _180
REMARK   75  A    between atoms: _183  and  _185
REMARK   76  A    between atoms: _185  and  _186
REMARK   77  A    between atoms: _185  and  _188
REMARK   78  A    between atoms: _191  and  _193
REMARK   79  A    between atoms: _193  and  _194
REMARK   80  A    between atoms: _193  and  _196
REMARK   81  A    between atoms: _196  and  _197
REMARK   82  A    between atoms: _203  and  _205
REMARK   83  A    between atoms: _205  and  _206
REMARK   84  A    between atoms: _205  and  _208
REMARK   85  A    between atoms: _208  and  _209
REMARK   86  A    between atoms: _212  and  _214
REMARK   87  A    between atoms: _214  and  _215
REMARK   88  A    between atoms: _214  and  _217
REMARK   89  A    between atoms: _217  and  _218
REMARK   90  A    between atoms: _223  and  _224
REMARK   91  A    between atoms: _226  and  _228
REMARK   92  A    between atoms: _228  and  _229
REMARK   93  A    between atoms: _228  and  _231
REMARK   94  A    between atoms: _231  and  _232
REMARK   95  A    between atoms: _235  and  _237
REMARK   96  A    between atoms: _237  and  _238
REMARK   97  A    between atoms: _237  and  _240
REMARK   98  A    between atoms: _240  and  _241
REMARK   99  A    between atoms: _244  and  _246
REMARK  100  A    between atoms: _246  and  _247
REMARK  101  A    between atoms: _250  and  _252
REMARK  102  A    between atoms: _252  and  _253
REMARK  103  A    between atoms: _255  and  _257
REMARK  104  A    between atoms: _257  and  _258
REMARK  105  A    between atoms: _257  and  _260
REMARK  106  A    between atoms: _260  and  _261
REMARK  107  A    between atoms: _261  and  _262
REMARK  108  A    between atoms: _267  and  _269
REMARK  109  A    between atoms: _269  and  _270
REMARK  110  A    between atoms: _269  and  _272
REMARK  111  A    between atoms: _274  and  _276
REMARK  112  A    between atoms: _276  and  _277
REMARK  113  A    between atoms: _276  and  _279
REMARK  114  A    between atoms: _279  and  _280
REMARK  115  A    between atoms: _282  and  _284
REMARK  116  A    between atoms: _284  and  _285
REMARK  117  A    between atoms: _284  and  _287
REMARK  118  A    between atoms: _290  and  _292
REMARK  119  A    between atoms: _292  and  _293
REMARK  120  A    between atoms: _292  and  _295
REMARK  121  A    between atoms: _298  and  _300
REMARK  122  A    between atoms: _300  and  _301
REMARK  123  A    between atoms: _303  and  _305
REMARK  124  A    between atoms: _305  and  _306
REMARK  125  A    between atoms: _305  and  _308
REMARK  126  A    between atoms: _308  and  _309
REMARK  127  A    between atoms: _312  and  _314
REMARK  128  A    between atoms: _314  and  _315
REMARK  129  A    between atoms: _314  and  _317
REMARK  130  A    between atoms: _317  and  _318
REMARK  131  A    between atoms: _318  and  _319
REMARK  132  A    between atoms: _324  and  _326
REMARK  133  A    between atoms: _326  and  _327
REMARK  134  A    between atoms: _326  and  _329
REMARK  135  A    between atoms: _329  and  _330
REMARK  136  A    between atoms: _333  and  _335
REMARK  137  A    between atoms: _335  and  _336
REMARK  138  A    between atoms: _335  and  _338
REMARK  139  A    between atoms: _338  and  _339
REMARK  140  A    between atoms: _342  and  _344
REMARK  141  A    between atoms: _344  and  _345
REMARK  142  A    between atoms: _344  and  _347
REMARK  143  A    between atoms: _347  and  _348
REMARK  144  A    between atoms: _351  and  _353
REMARK  145  A    between atoms: _353  and  _354
REMARK  146  A    between atoms: _353  and  _356
REMARK  147  A    between atoms: _356  and  _357
REMARK  148  A    between atoms: _357  and  _358
REMARK  149  A    between atoms: _358  and  _359
REMARK  150  A    between atoms: _368  and  _370
REMARK  151  A    between atoms: _370  and  _371
REMARK  152  A    between atoms: _370  and  _373
REMARK  153  A    between atoms: _373  and  _374
REMARK  154  A    between atoms: _377  and  _379
REMARK  155  A    between atoms: _379  and  _380
REMARK  156  A    between atoms: _379  and  _382
REMARK  157  A    between atoms: _382  and  _383
REMARK  158  A    between atoms: _386  and  _388
REMARK  159  A    between atoms: _388  and  _389
REMARK  160  A    between atoms: _388  and  _391
REMARK  161  A    between atoms: _393  and  _395
REMARK  162  A    between atoms: _395  and  _396
REMARK  163  A    between atoms: _395  and  _398
REMARK  164  A    between atoms: _398  and  _399
REMARK  165  A    between atoms: _401  and  _403
REMARK  166  A    between atoms: _403  and  _404
REMARK  167  A    between atoms: _407  and  _409
REMARK  168  A    between atoms: _409  and  _410
REMARK  169  A    between atoms: _409  and  _412
REMARK  170  A    between atoms: _412  and  _413
REMARK  171  A    between atoms: _416  and  _418
REMARK  172  A    between atoms: _418  and  _419
REMARK  173  A    between atoms: _418  and  _421
REMARK  174  A    between atoms: _421  and  _422
REMARK  175  A    between atoms: _425  and  _427
REMARK  176  A    between atoms: _427  and  _428
REMARK  177  A    between atoms: _427  and  _430
REMARK  178  A    between atoms: _430  and  _431
REMARK  179  A    between atoms: _431  and  _432
REMARK  180  A    between atoms: _437  and  _439
REMARK  181  A    between atoms: _439  and  _440
REMARK  182  A    between atoms: _439  and  _442
REMARK  183  A    between atoms: _442  and  _443
REMARK  184  A    between atoms: _443  and  _444
REMARK  185  A    between atoms: _444  and  _445
REMARK  186  A    between atoms: _445  and  _446
REMARK  187  A    between atoms: _450  and  _452
REMARK  188  A    between atoms: _452  and  _453
REMARK  189  A    between atoms: _452  and  _455
REMARK  190  A    between atoms: _455  and  _456
REMARK                            x       y       z     vdW  Elec       q    Type
REMARK                         _______ _______ _______ _____ _____    ______ ____
ROOT
ATOM      1  CA  VAL A   2     100.560  36.178 -11.911  0.00  0.00    +0.148 C 
ENDROOT
BRANCH   1   3
ATOM      2  C   SER A   1     100.695  33.945 -10.994  0.00  0.00    +0.241 C 
ATOM      3  N   VAL A   2     100.458  35.241 -10.799  0.00  0.00    -0.297 N 
ATOM      4  H   VAL A   2     100.200  35.585  -9.852  0.00  0.00    +0.150 HD
ATOM      5  O   SER A   1     100.987  33.484 -12.098  0.00  0.00    -0.274 OA
BRANCH   2   6
ATOM      6  CA  SER A   1     100.580  33.022  -9.788  0.00  0.00    +0.174 C 
BRANCH   6   7
ATOM      7  N   SER A   1      99.796  31.876 -10.194  0.00  0.00    -0.236 NA
ATOM      8  H   SER A   1     100.274  31.026 -10.555  0.00  0.00    +0.142 HD
ENDBRANCH   6   7
BRANCH   6   9
ATOM      9  CB  SER A   1     101.967  32.559  -9.339  0.00  0.00    +0.163 C 
BRANCH   9  10
ATOM     10  OG  SER A   1     102.787  33.661  -8.989  0.00  0.00    -0.380 OA
ATOM     11  H   SER A   1     103.676  33.332  -8.703  0.00  0.00    +0.211 HD
ENDBRANCH   9  10
ENDBRANCH   6   9
ENDBRANCH   2   6
ENDBRANCH   1   3
BRANCH   1  12
ATOM     12  C   VAL A   2     102.010  36.359 -12.355  0.00  0.00    +0.241 C 
ATOM     13  N   VAL A   3     102.921  35.586 -11.772  0.00  0.00    -0.298 N 
ATOM     14  H   VAL A   3     102.625  34.908 -11.040  0.00  0.00    +0.150 HD
ATOM     15  O   VAL A   2     102.302  37.193 -13.209  0.00  0.00    -0.273 OA
BRANCH  13  16
ATOM     16  CA  VAL A   3     104.329  35.674 -12.143  0.00  0.00    +0.137 C 
BRANCH  16  17
ATOM     17  CB  VAL A   3     105.218  36.163 -10.961  0.00  0.00    +0.026 C 
ATOM     18  CG2 VAL A   3     104.540  35.881  -9.631  0.00  0.00    +0.002 C 
ATOM     19  CG1 VAL A   3     105.499  37.659 -11.104  0.00  0.00    +0.002 C 
ENDBRANCH  16  17
BRANCH  16  20
ATOM     20  C   VAL A   3     104.831  34.318 -12.629  0.00  0.00    +0.227 C 
ATOM     21  O   VAL A   3     106.028  34.135 -12.872  0.00  0.00    -0.286 OA
ENDBRANCH  16  20
ENDBRANCH  13  16
ENDBRANCH   1  12
BRANCH   1  22
ATOM     22  CB  VAL A   2      99.977  37.566 -11.557  0.00  0.00    +0.027 C 
ATOM     23  CG2 VAL A   2     100.750  38.181 -10.390  0.00  0.00    +0.002 C 
ATOM     24  CG1 VAL A   2      98.495  37.437 -11.235  0.00  0.00    +0.002 C 
ENDBRANCH   1  22
TORSDOF 10
REMARK  Name = ../refined-set-2016/1a4r/1a4r_pocket.pdb
REMARK  190 active torsions:
REMARK  status: ('A' for Active; 'I' for Inactive)
REMARK    1  A    between atoms: _1  and  _3
REMARK    2  A    between atoms: _3  and  _4
REMARK    3  A    between atoms: _3  and  _6
REMARK    4  A    between atoms: _9  and  _11
REMARK    5  A    between atoms: _11  and  _12
REMARK    6  A    between atoms: _11  and  _14
REMARK    7  A    between atoms: _17  and  _19
REMARK    8  A    between atoms: _19  and  _20
REMARK    9  A    between atoms: _22  and  _24
REMARK   10  A    between atoms: _24  and  _25
REMARK   11  A    between atoms: _24  and  _27
REMARK   12  A    between atoms: _27  and  _28
REMARK   13  A    between atoms: _31  and  _33
REMARK   14  A    between atoms: _33  and  _34
REMARK   15  A    between atoms: _33  and  _36
REMARK   16  A    between atoms: _39  and  _41
REMARK   17  A    between atoms: _41  and  _42
REMARK   18  A    between atoms: _45  and  _47
REMARK   19  A    between atoms: _47  and  _48
REMARK   20  A    between atoms: _47  and  _50
REMARK   21  A    between atoms: _53  and  _55
REMARK   22  A    between atoms: _55  and  _56
REMARK   23  A    between atoms: _58  and  _60
REMARK   24  A    between atoms: _60  and  _61
REMARK   25  A    between atoms: _60  and  _63
REMARK   26  A    between atoms: _63  and  _64
REMARK   27  A    between atoms: _64  and  _65
REMARK   28  A    between atoms: _65  and  _66
REMARK   29  A    between atoms: _66  and  _67
REMARK   30  A    between atoms: _71  and  _73
REMARK   31  A    between atoms: _73  and  _74
REMARK   32  A    between atoms: _73  and  _76
REMARK   33  A    between atoms: _76  and  _77
REMARK   34  A    between atoms: _80  and  _82
REMARK   35  A    between atoms: _82  and  _83
REMARK   36  A    between atoms: _82  and  _85
REMARK   37  A    between atoms: _87  and  _89
REMARK   38  A    between atoms: _89  and  _90
REMARK   39  A    between atoms: _89  and  _92
REMARK   40  A    between atoms: _92  and  _93
REMARK   41  A    between atoms: _96  and  _98
REMARK   42  A    between atoms: _98  and  _99
REMARK   43  A    between atoms: _98  and  _101
REMARK   44  A    between atoms: _101  and  _102
REMARK   45  A    between atoms: _105  and  _107
REMARK   46  A    between atoms: _107  and  _108
REMARK   47  A    between atoms: _107  and  _110
REMARK   48  A    between atoms: _110  and  _111
REMARK   49  A    between atoms: _114  and  _116
REMARK   50  A    between atoms: _116  and  _117
REMARK   51  A    between atoms: _116  and  _119
REMARK   52  A    between atoms: _119  and  _120
REMARK   53  A    between atoms: _122  and  _124
REMARK   54  A    between atoms: _124  and  _125
REMARK   55  A    between atoms: _124  and  _127
REMARK   56  A    between atoms: _127  and  _128
REMARK   57  A    between atoms: _135  and  _136
REMARK   58  A    between atoms: _141  and  _143
REMARK   59  A    between atoms: _143  and  _144
REMARK   60  A    between atoms: _143  and  _146
REMARK   61  A    between atoms: _146  and  _147
REMARK   62  A    between atoms: _149  and  _151
REMARK   63  A    between atoms: _151  and  _152
REMARK   64  A    between atoms: _151  and  _154
REMARK   65  A    between atoms: _154  and  _155
REMARK   66  A    between atoms: _155  and  _156
REMARK   67  A    between atoms: _159  and  _161
REMARK   68  A    between atoms: _161  and  _162
REMARK   69  A    between atoms: _161  and  _164
REMARK   70  A    between atoms: _168  and  _169
REMARK   71  A    between atoms: _174  and  _176
REMARK   72  A    between atoms: _176  and  _177
REMARK   73  A    between atoms: _176  and  _179
REMARK   74  A    between atoms: _179  and  _180
REMARK   75  A    between atoms: _183  and  _185
REMARK   76  A    between atoms: _185  and  _186
REMARK   77  A    between atoms: _185  and  _188
REMARK   78  A    between atoms: _191  and  _193
REMARK   79  A    between atoms: _193  and  _194
REMARK   80  A    between atoms: _193  and  _196
REMARK   81  A    between atoms: _196  and  _197
REMARK   82  A    between atoms: _203  and  _205
REMARK   83  A    between atoms: _205  and  _206
REMARK   84  A    between atoms: _205  and  _208
REMARK   85  A    between atoms: _208  and  _209
REMARK   86  A    between atoms: _212  and  _214
REMARK   87  A    between atoms: _214  and  _215
REMARK   88  A    between atoms: _214  and  _217
REMARK   89  A    between atoms: _217  and  _218
REMARK   90  A    between atoms: _223  and  _224
REMARK   91  A    between atoms: _226  and  _228
REMARK   92  A    between atoms: _228  and  _229
REMARK   93  A    between atoms: _228  and  _231
REMARK   94  A    between atoms: _231  and  _232
REMARK   95  A    between atoms: _235  and  _237
REMARK   96  A    between atoms: _237  and  _238
REMARK   97  A    between atoms: _237  and  _240
REMARK   98  A    between atoms: _240  and  _241
REMARK   99  A    between atoms: _244  and  _246
REMARK  100  A    between atoms: _246  and  _247
REMARK  101  A    between atoms: _250  and  _252
REMARK  102  A    between atoms: _252  and  _253
REMARK  103  A    between atoms: _255  and  _257
REMARK  104  A    between atoms: _257  and  _258
REMARK  105  A    between atoms: _257  and  _260
REMARK  106  A    between atoms: _260  and  _261
REMARK  107  A    between atoms: _261  and  _262
REMARK  108  A    between atoms: _267  and  _269
REMARK  109  A    between atoms: _269  and  _270
REMARK  110  A    between atoms: _269  and  _272
REMARK  111  A    between atoms: _274  and  _276
REMARK  112  A    between atoms: _276  and  _277
REMARK  113  A    between atoms: _276  and  _279
REMARK  114  A    between atoms: _279  and  _280
REMARK  115  A    between atoms: _282  and  _284
REMARK  116  A    between atoms: _284  and  _285
REMARK  117  A    between atoms: _284  and  _287
REMARK  118  A    between atoms: _290  and  _292
REMARK  119  A    between atoms: _292  and  _293
REMARK  120  A    between atoms: _292  and  _295
REMARK  121  A    between atoms: _298  and  _300
REMARK  122  A    between atoms: _300  and  _301
REMARK  123  A    between atoms: _303  and  _305
REMARK  124  A    between atoms: _305  and  _306
REMARK  125  A    between atoms: _305  and  _308
REMARK  126  A    between atoms: _308  and  _309
REMARK  127  A    between atoms: _312  and  _314
REMARK  128  A    between atoms: _314  and  _315
REMARK  129  A    between atoms: _314  and  _317
REMARK  130  A    between atoms: _317  and  _318
REMARK  131  A    between atoms: _318  and  _319
REMARK  132  A    between atoms: _324  and  _326
REMARK  133  A    between atoms: _326  and  _327
REMARK  134  A    between atoms: _326  and  _329
REMARK  135  A    between atoms: _329  and  _330
REMARK  136  A    between atoms: _333  and  _335
REMARK  137  A    between atoms: _335  and  _336
REMARK  138  A    between atoms: _335  and  _338
REMARK  139  A    between atoms: _338  and  _339
REMARK  140  A    between atoms: _342  and  _344
REMARK  141  A    between atoms: _344  and  _345
REMARK  142  A    between atoms: _344  and  _347
REMARK  143  A    between atoms: _347  and  _348
REMARK  144  A    between atoms: _351  and  _353
REMARK  145  A    between atoms: _353  and  _354
REMARK  146  A    between atoms: _353  and  _356
REMARK  147  A    between atoms: _356  and  _357
REMARK  148  A    between atoms: _357  and  _358
REMARK  149  A    between atoms: _358  and  _359
REMARK  150  A    between atoms: _368  and  _370
REMARK  151  A    between atoms: _370  and  _371
REMARK  152  A    between atoms: _370  and  _373
REMARK  153  A    between atoms: _373  and  _374
REMARK  154  A    between atoms: _377  and  _379
REMARK  155  A    between atoms: _379  and  _380
REMARK  156  A    between atoms: _379  and  _382
REMARK  157  A    between atoms: _382  and  _383
REMARK  158  A    between atoms: _386  and  _388
REMARK  159  A    between atoms: _388  and  _389
REMARK  160  A    between atoms: _388  and  _391
REMARK  161  A    between atoms: _393  and  _395
REMARK  162  A    between atoms: _395  and  _396
REMARK  163  A    between atoms: _395  and  _398
REMARK  164  A    between atoms: _398  and  _399
REMARK  165  A    between atoms: _401  and  _403
REMARK  166  A    between atoms: _403  and  _404
REMARK  167  A    between atoms: _407  and  _409
REMARK  168  A    between atoms: _409  and  _410
REMARK  169  A    between atoms: _409  and  _412
REMARK  170  A    between atoms: _412  and  _413
REMARK  171  A    between atoms: _416  and  _418
REMARK  172  A    between atoms: _418  and  _419
REMARK  173  A    between atoms: _418  and  _421
REMARK  174  A    between atoms: _421  and  _422
REMARK  175  A    between atoms: _425  and  _427
REMARK  176  A    between atoms: _427  and  _428
REMARK  177  A    between atoms: _427  and  _430
REMARK  178  A    between atoms: _430  and  _431
REMARK  179  A    between atoms: _431  and  _432
REMARK  180  A    between atoms: _437  and  _439
REMARK  181  A    between atoms: _439  and  _440
REMARK  182  A    between atoms: _439  and  _442
REMARK  183  A    between atoms: _442  and  _443
REMARK  184  A    between atoms: _443  and  _444
REMARK  185  A    between atoms: _444  and  _445
REMARK  186  A    between atoms: _445  and  _446
REMARK  187  A    between atoms: _450  and  _452
REMARK  188  A    between atoms: _452  and  _453
REMARK  189  A    between atoms: _452  and  _455
REMARK  190  A    between atoms: _455  and  _456
REMARK                            x       y       z     vdW  Elec       q    Type
REMARK                         _______ _______ _______ _____ _____    ______ ____
ROOT
ATOM      1  C   ILE A   4     101.473  41.199  -6.921  0.00  0.00    +0.241 C 
ATOM      2  N   ASP A   5     102.064  41.006  -5.748  0.00  0.00    -0.297 N 
ATOM      3  H   ASP A   5     101.809  40.177  -5.174  0.00  0.00    +0.150 HD
ATOM      4  O   ILE A   4     101.734  42.163  -7.642  0.00  0.00    -0.273 OA
ENDROOT
BRANCH   2   5
ATOM      5  CA  ASP A   5     103.067  41.943  -5.256  0.00  0.00    +0.160 C 
BRANCH   5   6
ATOM      6  C   ASP A   5     104.377  41.768  -6.028  0.00  0.00    +0.241 C 
ATOM      7  O   ASP A   5     105.188  42.696  -6.124  0.00  0.00    -0.273 OA
ATOM      8  N   LEU A   6     104.568  40.572  -6.581  0.00  0.00    -0.297 N 
ATOM      9  H   LEU A   6     103.831  39.847  -6.468  0.00  0.00    +0.150 HD
BRANCH   8  10
ATOM     10  CA  LEU A   6     105.770  40.236  -7.340  0.00  0.00    +0.149 C 
BRANCH  10  11
ATOM     11  C   LEU A   6     105.727  40.740  -8.780  0.00  0.00    +0.241 C 
ATOM     12  N   ARG A   7     104.590  41.293  -9.182  0.00  0.00    -0.298 N 
ATOM     13  H   ARG A   7     103.790  41.365  -8.522  0.00  0.00    +0.150 HD
ATOM     14  O   LEU A   6     106.704  40.617  -9.519  0.00  0.00    -0.273 OA
BRANCH  12  15
ATOM     15  CA  ARG A   7     104.454  41.798 -10.534  0.00  0.00    +0.137 C 
BRANCH  15  16
ATOM     16  C   ARG A   7     105.307  43.041 -10.715  0.00  0.00    +0.227 C 
ATOM     17  O   ARG A   7     105.989  43.200 -11.729  0.00  0.00    -0.286 OA
ENDBRANCH  15  16
BRANCH  15  18
ATOM     18  CB  ARG A   7     102.994  42.124 -10.835  0.00  0.00    +0.031 C 
BRANCH  18  19
ATOM     19  CG  ARG A   7     102.341  41.128 -11.785  0.00  0.00    +0.045 C 
BRANCH  19  20
ATOM     20  CD  ARG A   7     101.343  41.814 -12.702  0.00  0.00    +0.174 C 
BRANCH  20  21
ATOM     21  NE  ARG A   7     100.145  42.203 -11.967  0.00  0.00    -0.265 N 
ATOM     22  HE  ARG A   7     100.164  43.106 -11.451  0.00  0.00    +0.259 HD
ATOM     23  CZ  ARG A   7      99.032  41.481 -11.913  0.00  0.00    +0.342 C 
ATOM     24  NH2 ARG A   7      98.004  41.915 -11.203  0.00  0.00    -0.292 N 
ATOM     25 HH21 ARG A   7      98.070  42.818 -10.691  0.00  0.00    +0.255 HD
ATOM     26 HH22 ARG A   7      97.130  41.354 -11.157  0.00  0.00    +0.255 HD
ATOM     27  NH1 ARG A   7      98.952  40.319 -12.556  0.00  0.00    -0.292 N 
ATOM     28 HH11 ARG A   7      98.077  39.758 -12.510  0.00  0.00    +0.255 HD
ATOM     29 HH12 ARG A   7      99.764  39.971 -13.105  0.00  0.00    +0.255 HD
ENDBRANCH  20  21
ENDBRANCH  19  20
ENDBRANCH  18  19
ENDBRANCH  15  18
ENDBRANCH  12  15
ENDBRANCH  10  11
BRANCH  10  30
ATOM     30  CB  LEU A   6     105.966  38.720  -7.352  0.00  0.00    +0.029 C 
BRANCH  30  31
ATOM     31  CG  LEU A   6     106.871  38.111  -6.282  0.00  0.00    +0.002 C 
ATOM     32  CD2 LEU A   6     107.012  39.067  -5.111  0.00  0.00    +0.000 C 
ATOM     33  CD1 LEU A   6     106.287  36.782  -5.833  0.00  0.00    +0.000 C 
ENDBRANCH  30  31
ENDBRANCH  10  30
ENDBRANCH   8  10
ENDBRANCH   5   6
BRANCH   5  34
ATOM     34  CB  ASP A   5     103.309  41.740  -3.747  0.00  0.00    +0.143 C 
BRANCH  34  35
ATOM     35  CG  ASP A   5     103.670  40.300  -3.384  0.00  0.00    +0.367 C 
ATOM     36  OD2 ASP A   5     104.871  40.007  -3.194  0.00  0.00    -0.246 OA
ATOM     37  OD1 ASP A   5     102.751  39.460  -3.277  0.00  0.00    -0.246 OA
ENDBRANCH  34  35
ENDBRANCH   5  34
ENDBRANCH   2   5
BRANCH   1  38
ATOM     38  CA  ILE A   4     100.445  40.150  -7.357  0.00  0.00    +0.149 C 
BRANCH  38  40
ATOM     39  C   GLN A   3     101.469  38.159  -6.441  0.00  0.00    +0.241 C 
ATOM     40  N   ILE A   4     100.421  38.969  -6.509  0.00  0.00    -0.297 N 
ATOM     41  H   ILE A   4      99.571  38.757  -5.949  0.00  0.00    +0.150 HD
ATOM     42  O   GLN A   3     102.512  38.370  -7.053  0.00  0.00    -0.273 OA
BRANCH  39  43
ATOM     43  CA  GLN A   3     101.334  36.943  -5.544  0.00  0.00    +0.149 C 
BRANCH  43  45
ATOM     44  C   THR A   2      99.518  35.792  -6.715  0.00  0.00    +0.243 C 
ATOM     45  N   GLN A   3     100.016  36.314  -5.595  0.00  0.00    -0.297 N 
ATOM     46  H   GLN A   3      99.446  36.272  -4.726  0.00  0.00    +0.150 HD
ATOM     47  O   THR A   2     100.113  35.820  -7.795  0.00  0.00    -0.273 OA
BRANCH  44  48
ATOM     48  CA  THR A   2      98.135  35.153  -6.602  0.00  0.00    +0.176 C 
BRANCH  48  51
ATOM     49  C   GLY A   1      96.369  35.706  -8.153  0.00  0.00    +0.240 C 
ATOM     50  O   GLY A   1      95.853  36.467  -7.336  0.00  0.00    -0.274 OA
ATOM     51  N   THR A   2      97.476  35.025  -7.893  0.00  0.00    -0.295 N 
ATOM     52  H   THR A   2      97.876  34.395  -8.617  0.00  0.00    +0.150 HD
BRANCH  49  53
ATOM     53  CA  GLY A   1      95.736  35.503  -9.513  0.00  0.00    +0.169 C 
BRANCH  53  54
ATOM     54  N   GLY A   1      94.349  35.198  -9.240  0.00  0.00    -0.236 NA
ATOM     55  H   GLY A   1      93.646  35.964  -9.211  0.00  0.00    +0.142 HD
ENDBRANCH  53  54
ENDBRANCH  49  53
ENDBRANCH  48  51
BRANCH  48  56
ATOM     56  CB  THR A   2      98.278  33.778  -5.923  0.00  0.00    +0.137 C 
ATOM     57  CG2 THR A   2      96.916  33.099  -5.804  0.00  0.00    +0.034 C 
BRANCH  56  58
ATOM     58  OG1 THR A   2      99.150  32.953  -6.704  0.00  0.00    -0.382 OA
ATOM     59  HG1 THR A   2      99.243  32.069  -6.269  0.00  0.00    +0.210 HD
ENDBRANCH  56  58
ENDBRANCH  48  56
ENDBRANCH  44  48
ENDBRANCH  43  45
BRANCH  43  60
ATOM     60  CB  GLN A   3     102.405  35.928  -5.929  0.00  0.00    +0.039 C 
BRANCH  60  61
ATOM     61  CG  GLN A   3     102.052  34.491  -5.581  0.00  0.00    +0.087 C 
BRANCH  61  62
ATOM     62  CD  GLN A   3     103.289  33.629  -5.432  0.00  0.00    +0.219 C 
ATOM     63  NE2 GLN A   3     103.117  32.416  -4.905  0.00  0.00    -0.329 N 
ATOM     64 HE21 GLN A   3     102.167  32.103  -4.620  0.00  0.00    +0.145 HD
ATOM     65 HE22 GLN A   3     103.933  31.783  -4.779  0.00  0.00    +0.145 HD
ATOM     66  OE1 GLN A   3     104.388  34.049  -5.785  0.00  0.00    -0.275 OA
ENDBRANCH  61  62
ENDBRANCH  60  61
ENDBRANCH  43  60
ENDBRANCH  39  43
ENDBRANCH  38  40
BRANCH  38  67
ATOM     67  CB  ILE A   4      99.041  40.784  -7.437  0.00  0.00    +0.027 C 
ATOM     68  CG2 ILE A   4      98.061  39.781  -8.014  0.00  0.00    +0.002 C 
BRANCH  67  69
ATOM     69  CG1 ILE A   4      98.570  41.221  -6.048  0.00  0.00    +0.002 C 
ATOM     70  CD1 ILE A   4      97.216  41.945  -6.046  0.00  0.00    +0.000 C 
ENDBRANCH  67  69
ENDBRANCH  38  67
ENDBRANCH   1  38
TORSDOF 29
REMARK  Name = ../refined-set-2016/1a4r/1a4r_pocket.pdb
REMARK  190 active torsions:
REMARK  status: ('A' for Active; 'I' for Inactive)
REMARK    1  A    between atoms: _1  and  _3
REMARK    2  A    between atoms: _3  and  _4
REMARK    3  A    between atoms: _3  and  _6
REMARK    4  A    between atoms: _9  and  _11
REMARK    5  A    between atoms: _11  and  _12
REMARK    6  A    between atoms: _11  and  _14
REMARK    7  A    between atoms: _17  and  _19
REMARK    8  A    between atoms: _19  and  _20
REMARK    9  A    between atoms: _22  and  _24
REMARK   10  A    between atoms: _24  and  _25
REMARK   11  A    between atoms: _24  and  _27
REMARK   12  A    between atoms: _27  and  _28
REMARK   13  A    between atoms: _31  and  _33
REMARK   14  A    between atoms: _33  and  _34
REMARK   15  A    between atoms: _33  and  _36
REMARK   16  A    between atoms: _39  and  _41
REMARK   17  A    between atoms: _41  and  _42
REMARK   18  A    between atoms: _45  and  _47
REMARK   19  A    between atoms: _47  and  _48
REMARK   20  A    between atoms: _47  and  _50
REMARK   21  A    between atoms: _53  and  _55
REMARK   22  A    between atoms: _55  and  _56
REMARK   23  A    between atoms: _58  and  _60
REMARK   24  A    between atoms: _60  and  _61
REMARK   25  A    between atoms: _60  and  _63
REMARK   26  A    between atoms: _63  and  _64
REMARK   27  A    between atoms: _64  and  _65
REMARK   28  A    between atoms: _65  and  _66
REMARK   29  A    between atoms: _66  and  _67
REMARK   30  A    between atoms: _71  and  _73
REMARK   31  A    between atoms: _73  and  _74
REMARK   32  A    between atoms: _73  and  _76
REMARK   33  A    between atoms: _76  and  _77
REMARK   34  A    between atoms: _80  and  _82
REMARK   35  A    between atoms: _82  and  _83
REMARK   36  A    between atoms: _82  and  _85
REMARK   37  A    between atoms: _87  and  _89
REMARK   38  A    between atoms: _89  and  _90
REMARK   39  A    between atoms: _89  and  _92
REMARK   40  A    between atoms: _92  and  _93
REMARK   41  A    between atoms: _96  and  _98
REMARK   42  A    between atoms: _98  and  _99
REMARK   43  A    between atoms: _98  and  _101
REMARK   44  A    between atoms: _101  and  _102
REMARK   45  A    between atoms: _105  and  _107
REMARK   46  A    between atoms: _107  and  _108
REMARK   47  A    between atoms: _107  and  _110
REMARK   48  A    between atoms: _110  and  _111
REMARK   49  A    between atoms: _114  and  _116
REMARK   50  A    between atoms: _116  and  _117
REMARK   51  A    between atoms: _116  and  _119
REMARK   52  A    between atoms: _119  and  _120
REMARK   53  A    between atoms: _122  and  _124
REMARK   54  A    between atoms: _124  and  _125
REMARK   55  A    between atoms: _124  and  _127
REMARK   56  A    between atoms: _127  and  _128
REMARK   57  A    between atoms: _135  and  _136
REMARK   58  A    between atoms: _141  and  _143
REMARK   59  A    between atoms: _143  and  _144
REMARK   60  A    between atoms: _143  and  _146
REMARK   61  A    between atoms: _146  and  _147
REMARK   62  A    between atoms: _149  and  _151
REMARK   63  A    between atoms: _151  and  _152
REMARK   64  A    between atoms: _151  and  _154
REMARK   65  A    between atoms: _154  and  _155
REMARK   66  A    between atoms: _155  and  _156
REMARK   67  A    between atoms: _159  and  _161
REMARK   68  A    between atoms: _161  and  _162
REMARK   69  A    between atoms: _161  and  _164
REMARK   70  A    between atoms: _168  and  _169
REMARK   71  A    between atoms: _174  and  _176
REMARK   72  A    between atoms: _176  and  _177
REMARK   73  A    between atoms: _176  and  _179
REMARK   74  A    between atoms: _179  and  _180
REMARK   75  A    between atoms: _183  and  _185
REMARK   76  A    between atoms: _185  and  _186
REMARK   77  A    between atoms: _185  and  _188
REMARK   78  A    between atoms: _191  and  _193
REMARK   79  A    between atoms: _193  and  _194
REMARK   80  A    between atoms: _193  and  _196
REMARK   81  A    between atoms: _196  and  _197
REMARK   82  A    between atoms: _203  and  _205
REMARK   83  A    between atoms: _205  and  _206
REMARK   84  A    between atoms: _205  and  _208
REMARK   85  A    between atoms: _208  and  _209
REMARK   86  A    between atoms: _212  and  _214
REMARK   87  A    between atoms: _214  and  _215
REMARK   88  A    between atoms: _214  and  _217
REMARK   89  A    between atoms: _217  and  _218
REMARK   90  A    between atoms: _223  and  _224
REMARK   91  A    between atoms: _226  and  _228
REMARK   92  A    between atoms: _228  and  _229
REMARK   93  A    between atoms: _228  and  _231
REMARK   94  A    between atoms: _231  and  _232
REMARK   95  A    between atoms: _235  and  _237
REMARK   96  A    between atoms: _237  and  _238
REMARK   97  A    between atoms: _237  and  _240
REMARK   98  A    between atoms: _240  and  _241
REMARK   99  A    between atoms: _244  and  _246
REMARK  100  A    between atoms: _246  and  _247
REMARK  101  A    between atoms: _250  and  _252
REMARK  102  A    between atoms: _252  and  _253
REMARK  103  A    between atoms: _255  and  _257
REMARK  104  A    between atoms: _257  and  _258
REMARK  105  A    between atoms: _257  and  _260
REMARK  106  A    between atoms: _260  and  _261
REMARK  107  A    between atoms: _261  and  _262
REMARK  108  A    between atoms: _267  and  _269
REMARK  109  A    between atoms: _269  and  _270
REMARK  110  A    between atoms: _269  and  _272
REMARK  111  A    between atoms: _274  and  _276
REMARK  112  A    between atoms: _276  and  _277
REMARK  113  A    between atoms: _276  and  _279
REMARK  114  A    between atoms: _279  and  _280
REMARK  115  A    between atoms: _282  and  _284
REMARK  116  A    between atoms: _284  and  _285
REMARK  117  A    between atoms: _284  and  _287
REMARK  118  A    between atoms: _290  and  _292
REMARK  119  A    between atoms: _292  and  _293
REMARK  120  A    between atoms: _292  and  _295
REMARK  121  A    between atoms: _298  and  _300
REMARK  122  A    between atoms: _300  and  _301
REMARK  123  A    between atoms: _303  and  _305
REMARK  124  A    between atoms: _305  and  _306
REMARK  125  A    between atoms: _305  and  _308
REMARK  126  A    between atoms: _308  and  _309
REMARK  127  A    between atoms: _312  and  _314
REMARK  128  A    between atoms: _314  and  _315
REMARK  129  A    between atoms: _314  and  _317
REMARK  130  A    between atoms: _317  and  _318
REMARK  131  A    between atoms: _318  and  _319
REMARK  132  A    between atoms: _324  and  _326
REMARK  133  A    between atoms: _326  and  _327
REMARK  134  A    between atoms: _326  and  _329
REMARK  135  A    between atoms: _329  and  _330
REMARK  136  A    between atoms: _333  and  _335
REMARK  137  A    between atoms: _335  and  _336
REMARK  138  A    between atoms: _335  and  _338
REMARK  139  A    between atoms: _338  and  _339
REMARK  140  A    between atoms: _342  and  _344
REMARK  141  A    between atoms: _344  and  _345
REMARK  142  A    between atoms: _344  and  _347
REMARK  143  A    between atoms: _347  and  _348
REMARK  144  A    between atoms: _351  and  _353
REMARK  145  A    between atoms: _353  and  _354
REMARK  146  A    between atoms: _353  and  _356
REMARK  147  A    between atoms: _356  and  _357
REMARK  148  A    between atoms: _357  and  _358
REMARK  149  A    between atoms: _358  and  _359
REMARK  150  A    between atoms: _368  and  _370
REMARK  151  A    between atoms: _370  and  _371
REMARK  152  A    between atoms: _370  and  _373
REMARK  153  A    between atoms: _373  and  _374
REMARK  154  A    between atoms: _377  and  _379
REMARK  155  A    between atoms: _379  and  _380
REMARK  156  A    between atoms: _379  and  _382
REMARK  157  A    between atoms: _382  and  _383
REMARK  158  A    between atoms: _386  and  _388
REMARK  159  A    between atoms: _388  and  _389
REMARK  160  A    between atoms: _388  and  _391
REMARK  161  A    between atoms: _393  and  _395
REMARK  162  A    between atoms: _395  and  _396
REMARK  163  A    between atoms: _395  and  _398
REMARK  164  A    between atoms: _398  and  _399
REMARK  165  A    between atoms: _401  and  _403
REMARK  166  A    between atoms: _403  and  _404
REMARK  167  A    between atoms: _407  and  _409
REMARK  168  A    between atoms: _409  and  _410
REMARK  169  A    between atoms: _409  and  _412
REMARK  170  A    between atoms: _412  and  _413
REMARK  171  A    between atoms: _416  and  _418
REMARK  172  A    between atoms: _418  and  _419
REMARK  173  A    between atoms: _418  and  _421
REMARK  174  A    between atoms: _421  and  _422
REMARK  175  A    between atoms: _425  and  _427
REMARK  176  A    between atoms: _427  and  _428
REMARK  177  A    between atoms: _427  and  _430
REMARK  178  A    between atoms: _430  and  _431
REMARK  179  A    between atoms: _431  and  _432
REMARK  180  A    between atoms: _437  and  _439
REMARK  181  A    between atoms: _439  and  _440
REMARK  182  A    between atoms: _439  and  _442
REMARK  183  A    between atoms: _442  and  _443
REMARK  184  A    between atoms: _443  and  _444
REMARK  185  A    between atoms: _444  and  _445
REMARK  186  A    between atoms: _445  and  _446
REMARK  187  A    between atoms: _450  and  _452
REMARK  188  A    between atoms: _452  and  _453
REMARK  189  A    between atoms: _452  and  _455
REMARK  190  A    between atoms: _455  and  _456
REMARK                            x       y       z     vdW  Elec       q    Type
REMARK                         _______ _______ _______ _____ _____    ______ ____
ROOT
ATOM      1  CA  ASP A   1     109.024  43.447  -8.135  0.00  0.00    +0.144 C 
ENDROOT
BRANCH   1   2
ATOM      2  N   ASP A   1     107.700  43.797  -8.657  0.00  0.00    -0.239 NA
ATOM      3  H   ASP A   1     106.917  43.126  -8.521  0.00  0.00    +0.142 HD
ENDBRANCH   1   2
BRANCH   1   4
ATOM      4  C   ASP A   1     110.080  43.395  -9.246  0.00  0.00    +0.225 C 
ATOM      5  O   ASP A   1     109.902  42.696 -10.248  0.00  0.00    -0.287 OA
ENDBRANCH   1   4
BRANCH   1   6
ATOM      6  CB  ASP A   1     108.971  42.090  -7.420  0.00  0.00    +0.139 C 
BRANCH   6   7
ATOM      7  CG  ASP A   1     110.333  41.650  -6.895  0.00  0.00    +0.367 C 
ATOM      8  OD2 ASP A   1     110.976  42.452  -6.186  0.00  0.00    -0.246 OA
ATOM      9  OD1 ASP A   1     110.762  40.509  -7.187  0.00  0.00    -0.246 OA
ENDBRANCH   6   7
ENDBRANCH   1   6
TORSDOF 4
REMARK  Name = ../refined-set-2016/1a4r/1a4r_pocket.pdb
REMARK  190 active torsions:
REMARK  status: ('A' for Active; 'I' for Inactive)
REMARK    1  A    between atoms: _1  and  _3
REMARK    2  A    between atoms: _3  and  _4
REMARK    3  A    between atoms: _3  and  _6
REMARK    4  A    between atoms: _9  and  _11
REMARK    5  A    between atoms: _11  and  _12
REMARK    6  A    between atoms: _11  and  _14
REMARK    7  A    between atoms: _17  and  _19
REMARK    8  A    between atoms: _19  and  _20
REMARK    9  A    between atoms: _22  and  _24
REMARK   10  A    between atoms: _24  and  _25
REMARK   11  A    between atoms: _24  and  _27
REMARK   12  A    between atoms: _27  and  _28
REMARK   13  A    between atoms: _31  and  _33
REMARK   14  A    between atoms: _33  and  _34
REMARK   15  A    between atoms: _33  and  _36
REMARK   16  A    between atoms: _39  and  _41
REMARK   17  A    between atoms: _41  and  _42
REMARK   18  A    between atoms: _45  and  _47
REMARK   19  A    between atoms: _47  and  _48
REMARK   20  A    between atoms: _47  and  _50
REMARK   21  A    between atoms: _53  and  _55
REMARK   22  A    between atoms: _55  and  _56
REMARK   23  A    between atoms: _58  and  _60
REMARK   24  A    between atoms: _60  and  _61
REMARK   25  A    between atoms: _60  and  _63
REMARK   26  A    between atoms: _63  and  _64
REMARK   27  A    between atoms: _64  and  _65
REMARK   28  A    between atoms: _65  and  _66
REMARK   29  A    between atoms: _66  and  _67
REMARK   30  A    between atoms: _71  and  _73
REMARK   31  A    between atoms: _73  and  _74
REMARK   32  A    between atoms: _73  and  _76
REMARK   33  A    between atoms: _76  and  _77
REMARK   34  A    between atoms: _80  and  _82
REMARK   35  A    between atoms: _82  and  _83
REMARK   36  A    between atoms: _82  and  _85
REMARK   37  A    between atoms: _87  and  _89
REMARK   38  A    between atoms: _89  and  _90
REMARK   39  A    between atoms: _89  and  _92
REMARK   40  A    between atoms: _92  and  _93
REMARK   41  A    between atoms: _96  and  _98
REMARK   42  A    between atoms: _98  and  _99
REMARK   43  A    between atoms: _98  and  _101
REMARK   44  A    between atoms: _101  and  _102
REMARK   45  A    between atoms: _105  and  _107
REMARK   46  A    between atoms: _107  and  _108
REMARK   47  A    between atoms: _107  and  _110
REMARK   48  A    between atoms: _110  and  _111
REMARK   49  A    between atoms: _114  and  _116
REMARK   50  A    between atoms: _116  and  _117
REMARK   51  A    between atoms: _116  and  _119
REMARK   52  A    between atoms: _119  and  _120
REMARK   53  A    between atoms: _122  and  _124
REMARK   54  A    between atoms: _124  and  _125
REMARK   55  A    between atoms: _124  and  _127
REMARK   56  A    between atoms: _127  and  _128
REMARK   57  A    between atoms: _135  and  _136
REMARK   58  A    between atoms: _141  and  _143
REMARK   59  A    between atoms: _143  and  _144
REMARK   60  A    between atoms: _143  and  _146
REMARK   61  A    between atoms: _146  and  _147
REMARK   62  A    between atoms: _149  and  _151
REMARK   63  A    between atoms: _151  and  _152
REMARK   64  A    between atoms: _151  and  _154
REMARK   65  A    between atoms: _154  and  _155
REMARK   66  A    between atoms: _155  and  _156
REMARK   67  A    between atoms: _159  and  _161
REMARK   68  A    between atoms: _161  and  _162
REMARK   69  A    between atoms: _161  and  _164
REMARK   70  A    between atoms: _168  and  _169
REMARK   71  A    between atoms: _174  and  _176
REMARK   72  A    between atoms: _176  and  _177
REMARK   73  A    between atoms: _176  and  _179
REMARK   74  A    between atoms: _179  and  _180
REMARK   75  A    between atoms: _183  and  _185
REMARK   76  A    between atoms: _185  and  _186
REMARK   77  A    between atoms: _185  and  _188
REMARK   78  A    between atoms: _191  and  _193
REMARK   79  A    between atoms: _193  and  _194
REMARK   80  A    between atoms: _193  and  _196
REMARK   81  A    between atoms: _196  and  _197
REMARK   82  A    between atoms: _203  and  _205
REMARK   83  A    between atoms: _205  and  _206
REMARK   84  A    between atoms: _205  and  _208
REMARK   85  A    between atoms: _208  and  _209
REMARK   86  A    between atoms: _212  and  _214
REMARK   87  A    between atoms: _214  and  _215
REMARK   88  A    between atoms: _214  and  _217
REMARK   89  A    between atoms: _217  and  _218
REMARK   90  A    between atoms: _223  and  _224
REMARK   91  A    between atoms: _226  and  _228
REMARK   92  A    between atoms: _228  and  _229
REMARK   93  A    between atoms: _228  and  _231
REMARK   94  A    between atoms: _231  and  _232
REMARK   95  A    between atoms: _235  and  _237
REMARK   96  A    between atoms: _237  and  _238
REMARK   97  A    between atoms: _237  and  _240
REMARK   98  A    between atoms: _240  and  _241
REMARK   99  A    between atoms: _244  and  _246
REMARK  100  A    between atoms: _246  and  _247
REMARK  101  A    between atoms: _250  and  _252
REMARK  102  A    between atoms: _252  and  _253
REMARK  103  A    between atoms: _255  and  _257
REMARK  104  A    between atoms: _257  and  _258
REMARK  105  A    between atoms: _257  and  _260
REMARK  106  A    between atoms: _260  and  _261
REMARK  107  A    between atoms: _261  and  _262
REMARK  108  A    between atoms: _267  and  _269
REMARK  109  A    between atoms: _269  and  _270
REMARK  110  A    between atoms: _269  and  _272
REMARK  111  A    between atoms: _274  and  _276
REMARK  112  A    between atoms: _276  and  _277
REMARK  113  A    between atoms: _276  and  _279
REMARK  114  A    between atoms: _279  and  _280
REMARK  115  A    between atoms: _282  and  _284
REMARK  116  A    between atoms: _284  and  _285
REMARK  117  A    between atoms: _284  and  _287
REMARK  118  A    between atoms: _290  and  _292
REMARK  119  A    between atoms: _292  and  _293
REMARK  120  A    between atoms: _292  and  _295
REMARK  121  A    between atoms: _298  and  _300
REMARK  122  A    between atoms: _300  and  _301
REMARK  123  A    between atoms: _303  and  _305
REMARK  124  A    between atoms: _305  and  _306
REMARK  125  A    between atoms: _305  and  _308
REMARK  126  A    between atoms: _308  and  _309
REMARK  127  A    between atoms: _312  and  _314
REMARK  128  A    between atoms: _314  and  _315
REMARK  129  A    between atoms: _314  and  _317
REMARK  130  A    between atoms: _317  and  _318
REMARK  131  A    between atoms: _318  and  _319
REMARK  132  A    between atoms: _324  and  _326
REMARK  133  A    between atoms: _326  and  _327
REMARK  134  A    between atoms: _326  and  _329
REMARK  135  A    between atoms: _329  and  _330
REMARK  136  A    between atoms: _333  and  _335
REMARK  137  A    between atoms: _335  and  _336
REMARK  138  A    between atoms: _335  and  _338
REMARK  139  A    between atoms: _338  and  _339
REMARK  140  A    between atoms: _342  and  _344
REMARK  141  A    between atoms: _344  and  _345
REMARK  142  A    between atoms: _344  and  _347
REMARK  143  A    between atoms: _347  and  _348
REMARK  144  A    between atoms: _351  and  _353
REMARK  145  A    between atoms: _353  and  _354
REMARK  146  A    between atoms: _353  and  _356
REMARK  147  A    between atoms: _356  and  _357
REMARK  148  A    between atoms: _357  and  _358
REMARK  149  A    between atoms: _358  and  _359
REMARK  150  A    between atoms: _368  and  _370
REMARK  151  A    between atoms: _370  and  _371
REMARK  152  A    between atoms: _370  and  _373
REMARK  153  A    between atoms: _373  and  _374
REMARK  154  A    between atoms: _377  and  _379
REMARK  155  A    between atoms: _379  and  _380
REMARK  156  A    between atoms: _379  and  _382
REMARK  157  A    between atoms: _382  and  _383
REMARK  158  A    between atoms: _386  and  _388
REMARK  159  A    between atoms: _388  and  _389
REMARK  160  A    between atoms: _388  and  _391
REMARK  161  A    between atoms: _393  and  _395
REMARK  162  A    between atoms: _395  and  _396
REMARK  163  A    between atoms: _395  and  _398
REMARK  164  A    between atoms: _398  and  _399
REMARK  165  A    between atoms: _401  and  _403
REMARK  166  A    between atoms: _403  and  _404
REMARK  167  A    between atoms: _407  and  _409
REMARK  168  A    between atoms: _409  and  _410
REMARK  169  A    between atoms: _409  and  _412
REMARK  170  A    between atoms: _412  and  _413
REMARK  171  A    between atoms: _416  and  _418
REMARK  172  A    between atoms: _418  and  _419
REMARK  173  A    between atoms: _418  and  _421
REMARK  174  A    between atoms: _421  and  _422
REMARK  175  A    between atoms: _425  and  _427
REMARK  176  A    between atoms: _427  and  _428
REMARK  177  A    between atoms: _427  and  _430
REMARK  178  A    between atoms: _430  and  _431
REMARK  179  A    between atoms: _431  and  _432
REMARK  180  A    between atoms: _437  and  _439
REMARK  181  A    between atoms: _439  and  _440
REMARK  182  A    between atoms: _439  and  _442
REMARK  183  A    between atoms: _442  and  _443
REMARK  184  A    between atoms: _443  and  _444
REMARK  185  A    between atoms: _444  and  _445
REMARK  186  A    between atoms: _445  and  _446
REMARK  187  A    between atoms: _450  and  _452
REMARK  188  A    between atoms: _452  and  _453
REMARK  189  A    between atoms: _452  and  _455
REMARK  190  A    between atoms: _455  and  _456
REMARK                            x       y       z     vdW  Elec       q    Type
REMARK                         _______ _______ _______ _____ _____    ______ ____
ROOT
ATOM      1  CA  THR A   1     111.363  39.094 -10.495  0.00  0.00    +0.160 C 
ENDROOT
BRANCH   1   2
ATOM      2  N   THR A   1     112.182  40.099  -9.814  0.00  0.00    -0.237 NA
ATOM      3  H   THR A   1     111.716  40.932  -9.401  0.00  0.00    +0.142 HD
ENDBRANCH   1   2
BRANCH   1   4
ATOM      4  CB  THR A   1     109.890  39.141  -9.985  0.00  0.00    +0.134 C 
ATOM      5  CG2 THR A   1     108.962  38.348 -10.904  0.00  0.00    +0.034 C 
BRANCH   4   6
ATOM      6  OG1 THR A   1     109.825  38.585  -8.664  0.00  0.00    -0.383 OA
ATOM      7  HG1 THR A   1     110.403  39.112  -8.057  0.00  0.00    +0.210 HD
ENDBRANCH   4   6
ENDBRANCH   1   4
BRANCH   1   8
ATOM      8  C   THR A   1     111.368  39.213 -12.022  0.00  0.00    +0.227 C 
ATOM      9  O   THR A   1     111.916  38.354 -12.713  0.00  0.00    -0.287 OA
ENDBRANCH   1   8
TORSDOF 4
REMARK  Name = ../refined-set-2016/1a4r/1a4r_pocket.pdb
REMARK  190 active torsions:
REMARK  status: ('A' for Active; 'I' for Inactive)
REMARK    1  A    between atoms: _1  and  _3
REMARK    2  A    between atoms: _3  and  _4
REMARK    3  A    between atoms: _3  and  _6
REMARK    4  A    between atoms: _9  and  _11
REMARK    5  A    between atoms: _11  and  _12
REMARK    6  A    between atoms: _11  and  _14
REMARK    7  A    between atoms: _17  and  _19
REMARK    8  A    between atoms: _19  and  _20
REMARK    9  A    between atoms: _22  and  _24
REMARK   10  A    between atoms: _24  and  _25
REMARK   11  A    between atoms: _24  and  _27
REMARK   12  A    between atoms: _27  and  _28
REMARK   13  A    between atoms: _31  and  _33
REMARK   14  A    between atoms: _33  and  _34
REMARK   15  A    between atoms: _33  and  _36
REMARK   16  A    between atoms: _39  and  _41
REMARK   17  A    between atoms: _41  and  _42
REMARK   18  A    between atoms: _45  and  _47
REMARK   19  A    between atoms: _47  and  _48
REMARK   20  A    between atoms: _47  and  _50
REMARK   21  A    between atoms: _53  and  _55
REMARK   22  A    between atoms: _55  and  _56
REMARK   23  A    between atoms: _58  and  _60
REMARK   24  A    between atoms: _60  and  _61
REMARK   25  A    between atoms: _60  and  _63
REMARK   26  A    between atoms: _63  and  _64
REMARK   27  A    between atoms: _64  and  _65
REMARK   28  A    between atoms: _65  and  _66
REMARK   29  A    between atoms: _66  and  _67
REMARK   30  A    between atoms: _71  and  _73
REMARK   31  A    between atoms: _73  and  _74
REMARK   32  A    between atoms: _73  and  _76
REMARK   33  A    between atoms: _76  and  _77
REMARK   34  A    between atoms: _80  and  _82
REMARK   35  A    between atoms: _82  and  _83
REMARK   36  A    between atoms: _82  and  _85
REMARK   37  A    between atoms: _87  and  _89
REMARK   38  A    between atoms: _89  and  _90
REMARK   39  A    between atoms: _89  and  _92
REMARK   40  A    between atoms: _92  and  _93
REMARK   41  A    between atoms: _96  and  _98
REMARK   42  A    between atoms: _98  and  _99
REMARK   43  A    between atoms: _98  and  _101
REMARK   44  A    between atoms: _101  and  _102
REMARK   45  A    between atoms: _105  and  _107
REMARK   46  A    between atoms: _107  and  _108
REMARK   47  A    between atoms: _107  and  _110
REMARK   48  A    between atoms: _110  and  _111
REMARK   49  A    between atoms: _114  and  _116
REMARK   50  A    between atoms: _116  and  _117
REMARK   51  A    between atoms: _116  and  _119
REMARK   52  A    between atoms: _119  and  _120
REMARK   53  A    between atoms: _122  and  _124
REMARK   54  A    between atoms: _124  and  _125
REMARK   55  A    between atoms: _124  and  _127
REMARK   56  A    between atoms: _127  and  _128
REMARK   57  A    between atoms: _135  and  _136
REMARK   58  A    between atoms: _141  and  _143
REMARK   59  A    between atoms: _143  and  _144
REMARK   60  A    between atoms: _143  and  _146
REMARK   61  A    between atoms: _146  and  _147
REMARK   62  A    between atoms: _149  and  _151
REMARK   63  A    between atoms: _151  and  _152
REMARK   64  A    between atoms: _151  and  _154
REMARK   65  A    between atoms: _154  and  _155
REMARK   66  A    between atoms: _155  and  _156
REMARK   67  A    between atoms: _159  and  _161
REMARK   68  A    between atoms: _161  and  _162
REMARK   69  A    between atoms: _161  and  _164
REMARK   70  A    between atoms: _168  and  _169
REMARK   71  A    between atoms: _174  and  _176
REMARK   72  A    between atoms: _176  and  _177
REMARK   73  A    between atoms: _176  and  _179
REMARK   74  A    between atoms: _179  and  _180
REMARK   75  A    between atoms: _183  and  _185
REMARK   76  A    between atoms: _185  and  _186
REMARK   77  A    between atoms: _185  and  _188
REMARK   78  A    between atoms: _191  and  _193
REMARK   79  A    between atoms: _193  and  _194
REMARK   80  A    between atoms: _193  and  _196
REMARK   81  A    between atoms: _196  and  _197
REMARK   82  A    between atoms: _203  and  _205
REMARK   83  A    between atoms: _205  and  _206
REMARK   84  A    between atoms: _205  and  _208
REMARK   85  A    between atoms: _208  and  _209
REMARK   86  A    between atoms: _212  and  _214
REMARK   87  A    between atoms: _214  and  _215
REMARK   88  A    between atoms: _214  and  _217
REMARK   89  A    between atoms: _217  and  _218
REMARK   90  A    between atoms: _223  and  _224
REMARK   91  A    between atoms: _226  and  _228
REMARK   92  A    between atoms: _228  and  _229
REMARK   93  A    between atoms: _228  and  _231
REMARK   94  A    between atoms: _231  and  _232
REMARK   95  A    between atoms: _235  and  _237
REMARK   96  A    between atoms: _237  and  _238
REMARK   97  A    between atoms: _237  and  _240
REMARK   98  A    between atoms: _240  and  _241
REMARK   99  A    between atoms: _244  and  _246
REMARK  100  A    between atoms: _246  and  _247
REMARK  101  A    between atoms: _250  and  _252
REMARK  102  A    between atoms: _252  and  _253
REMARK  103  A    between atoms: _255  and  _257
REMARK  104  A    between atoms: _257  and  _258
REMARK  105  A    between atoms: _257  and  _260
REMARK  106  A    between atoms: _260  and  _261
REMARK  107  A    between atoms: _261  and  _262
REMARK  108  A    between atoms: _267  and  _269
REMARK  109  A    between atoms: _269  and  _270
REMARK  110  A    between atoms: _269  and  _272
REMARK  111  A    between atoms: _274  and  _276
REMARK  112  A    between atoms: _276  and  _277
REMARK  113  A    between atoms: _276  and  _279
REMARK  114  A    between atoms: _279  and  _280
REMARK  115  A    between atoms: _282  and  _284
REMARK  116  A    between atoms: _284  and  _285
REMARK  117  A    between atoms: _284  and  _287
REMARK  118  A    between atoms: _290  and  _292
REMARK  119  A    between atoms: _292  and  _293
REMARK  120  A    between atoms: _292  and  _295
REMARK  121  A    between atoms: _298  and  _300
REMARK  122  A    between atoms: _300  and  _301
REMARK  123  A    between atoms: _303  and  _305
REMARK  124  A    between atoms: _305  and  _306
REMARK  125  A    between atoms: _305  and  _308
REMARK  126  A    between atoms: _308  and  _309
REMARK  127  A    between atoms: _312  and  _314
REMARK  128  A    between atoms: _314  and  _315
REMARK  129  A    between atoms: _314  and  _317
REMARK  130  A    between atoms: _317  and  _318
REMARK  131  A    between atoms: _318  and  _319
REMARK  132  A    between atoms: _324  and  _326
REMARK  133  A    between atoms: _326  and  _327
REMARK  134  A    between atoms: _326  and  _329
REMARK  135  A    between atoms: _329  and  _330
REMARK  136  A    between atoms: _333  and  _335
REMARK  137  A    between atoms: _335  and  _336
REMARK  138  A    between atoms: _335  and  _338
REMARK  139  A    between atoms: _338  and  _339
REMARK  140  A    between atoms: _342  and  _344
REMARK  141  A    between atoms: _344  and  _345
REMARK  142  A    between atoms: _344  and  _347
REMARK  143  A    between atoms: _347  and  _348
REMARK  144  A    between atoms: _351  and  _353
REMARK  145  A    between atoms: _353  and  _354
REMARK  146  A    between atoms: _353  and  _356
REMARK  147  A    between atoms: _356  and  _357
REMARK  148  A    between atoms: _357  and  _358
REMARK  149  A    between atoms: _358  and  _359
REMARK  150  A    between atoms: _368  and  _370
REMARK  151  A    between atoms: _370  and  _371
REMARK  152  A    between atoms: _370  and  _373
REMARK  153  A    between atoms: _373  and  _374
REMARK  154  A    between atoms: _377  and  _379
REMARK  155  A    between atoms: _379  and  _380
REMARK  156  A    between atoms: _379  and  _382
REMARK  157  A    between atoms: _382  and  _383
REMARK  158  A    between atoms: _386  and  _388
REMARK  159  A    between atoms: _388  and  _389
REMARK  160  A    between atoms: _388  and  _391
REMARK  161  A    between atoms: _393  and  _395
REMARK  162  A    between atoms: _395  and  _396
REMARK  163  A    between atoms: _395  and  _398
REMARK  164  A    between atoms: _398  and  _399
REMARK  165  A    between atoms: _401  and  _403
REMARK  166  A    between atoms: _403  and  _404
REMARK  167  A    between atoms: _407  and  _409
REMARK  168  A    between atoms: _409  and  _410
REMARK  169  A    between atoms: _409  and  _412
REMARK  170  A    between atoms: _412  and  _413
REMARK  171  A    between atoms: _416  and  _418
REMARK  172  A    between atoms: _418  and  _419
REMARK  173  A    between atoms: _418  and  _421
REMARK  174  A    between atoms: _421  and  _422
REMARK  175  A    between atoms: _425  and  _427
REMARK  176  A    between atoms: _427  and  _428
REMARK  177  A    between atoms: _427  and  _430
REMARK  178  A    between atoms: _430  and  _431
REMARK  179  A    between atoms: _431  and  _432
REMARK  180  A    between atoms: _437  and  _439
REMARK  181  A    between atoms: _439  and  _440
REMARK  182  A    between atoms: _439  and  _442
REMARK  183  A    between atoms: _442  and  _443
REMARK  184  A    between atoms: _443  and  _444
REMARK  185  A    between atoms: _444  and  _445
REMARK  186  A    between atoms: _445  and  _446
REMARK  187  A    between atoms: _450  and  _452
REMARK  188  A    between atoms: _452  and  _453
REMARK  189  A    between atoms: _452  and  _455
REMARK  190  A    between atoms: _455  and  _456
REMARK                            x       y       z     vdW  Elec       q    Type
REMARK                         _______ _______ _______ _____ _____    ______ ____
ROOT
ATOM      1  C   LEU A   4     101.558  40.071   1.959  0.00  0.00    +0.241 C 
ATOM      2  O   LEU A   4     101.693  40.371   3.140  0.00  0.00    -0.273 OA
ATOM      3  N   THR A   5     101.064  40.918   1.063  0.00  0.00    -0.295 N 
ATOM      4  H   THR A   5     100.992  40.636   0.065  0.00  0.00    +0.150 HD
ENDROOT
BRANCH   3   5
ATOM      5  CA  THR A   5     100.621  42.249   1.481  0.00  0.00    +0.176 C 
BRANCH   5   6
ATOM      6  C   THR A   5      99.137  42.224   1.844  0.00  0.00    +0.243 C 
ATOM      7  O   THR A   5      98.594  43.214   2.333  0.00  0.00    -0.273 OA
ATOM      8  N   GLN A   6      98.495  41.083   1.601  0.00  0.00    -0.297 N 
ATOM      9  H   GLN A   6      99.027  40.295   1.180  0.00  0.00    +0.150 HD
BRANCH   8  10
ATOM     10  CA  GLN A   6      97.075  40.887   1.899  0.00  0.00    +0.149 C 
BRANCH  10  11
ATOM     11  C   GLN A   6      96.148  41.731   1.033  0.00  0.00    +0.241 C 
ATOM     12  O   GLN A   6      94.933  41.747   1.241  0.00  0.00    -0.273 OA
ATOM     13  N   LYS A   7      96.725  42.431   0.064  0.00  0.00    -0.298 N 
ATOM     14  H   LYS A   7      97.757  42.379  -0.052  0.00  0.00    +0.150 HD
BRANCH  13  15
ATOM     15  CA  LYS A   7      95.952  43.270  -0.841  0.00  0.00    +0.137 C 
BRANCH  15  16
ATOM     16  C   LYS A   7      94.908  42.426  -1.578  0.00  0.00    +0.227 C 
ATOM     17  O   LYS A   7      95.244  41.421  -2.205  0.00  0.00    -0.286 OA
ENDBRANCH  15  16
BRANCH  15  18
ATOM     18  CB  LYS A   7      96.891  43.941  -1.847  0.00  0.00    +0.028 C 
BRANCH  18  19
ATOM     19  CG  LYS A   7      96.209  44.917  -2.792  0.00  0.00    -0.000 C 
BRANCH  19  20
ATOM     20  CD  LYS A   7      96.896  44.920  -4.151  0.00  0.00    -0.024 C 
BRANCH  20  21
ATOM     21  CE  LYS A   7      96.336  46.009  -5.054  0.00  0.00    -0.086 C 
BRANCH  21  22
ATOM     22  NZ  LYS A   7      97.328  47.093  -5.259  0.00  0.00    +0.380 N 
ATOM     23  HZ1 LYS A   7      97.574  47.515  -4.341  0.00  0.00    -0.089 HD
ATOM     24  HZ2 LYS A   7      98.183  46.700  -5.701  0.00  0.00    -0.089 HD
ATOM     25  HZ3 LYS A   7      96.920  47.822  -5.878  0.00  0.00    -0.089 HD
ENDBRANCH  21  22
ENDBRANCH  20  21
ENDBRANCH  19  20
ENDBRANCH  18  19
ENDBRANCH  15  18
ENDBRANCH  13  15
ENDBRANCH  10  11
BRANCH  10  26
ATOM     26  CB  GLN A   6      96.799  41.177   3.376  0.00  0.00    +0.039 C 
BRANCH  26  27
ATOM     27  CG  GLN A   6      97.642  40.347   4.330  0.00  0.00    +0.087 C 
BRANCH  27  28
ATOM     28  CD  GLN A   6      96.884  39.934   5.572  0.00  0.00    +0.219 C 
ATOM     29  NE2 GLN A   6      97.610  39.642   6.647  0.00  0.00    -0.329 N 
ATOM     30 HE21 GLN A   6      97.140  39.356   7.530  0.00  0.00    +0.145 HD
ATOM     31 HE22 GLN A   6      98.648  39.700   6.605  0.00  0.00    +0.145 HD
ATOM     32  OE1 GLN A   6      95.657  39.882   5.567  0.00  0.00    -0.275 OA
ENDBRANCH  27  28
ENDBRANCH  26  27
ENDBRANCH  10  26
ENDBRANCH   8  10
ENDBRANCH   5   6
BRANCH   5  33
ATOM     33  CB  THR A   5     100.864  43.338   0.379  0.00  0.00    +0.137 C 
ATOM     34  CG2 THR A   5     102.173  43.080  -0.346  0.00  0.00    +0.034 C 
BRANCH  33  35
ATOM     35  OG1 THR A   5      99.784  43.340  -0.566  0.00  0.00    -0.382 OA
ATOM     36  HG1 THR A   5      98.936  43.539  -0.096  0.00  0.00    +0.210 HD
ENDBRANCH  33  35
ENDBRANCH   5  33
ENDBRANCH   3   5
BRANCH   1  37
ATOM     37  CA  LEU A   4     101.984  38.696   1.472  0.00  0.00    +0.149 C 
BRANCH  37  40
ATOM     38  C   ALA A   3      99.889  37.454   1.436  0.00  0.00    +0.241 C 
ATOM     39  O   ALA A   3      99.712  37.586   2.646  0.00  0.00    -0.273 OA
ATOM     40  N   LEU A   4     100.933  37.964   0.791  0.00  0.00    -0.297 N 
ATOM     41  H   LEU A   4     100.999  37.834  -0.239  0.00  0.00    +0.150 HD
BRANCH  38  42
ATOM     42  CA  ALA A   3      98.891  36.701   0.567  0.00  0.00    +0.149 C 
ATOM     43  CB  ALA A   3      99.233  35.216   0.542  0.00  0.00    +0.031 C 
BRANCH  42  46
ATOM     44  C   SER A   2      98.649  38.516  -1.009  0.00  0.00    +0.243 C 
ATOM     45  O   SER A   2      98.150  39.249  -0.161  0.00  0.00    -0.273 OA
ATOM     46  N   ALA A   3      99.011  37.265  -0.766  0.00  0.00    -0.297 N 
ATOM     47  H   ALA A   3      99.386  36.679  -1.539  0.00  0.00    +0.150 HD
BRANCH  44  48
ATOM     48  CA  SER A   2      98.848  39.006  -2.420  0.00  0.00    +0.178 C 
BRANCH  48  50
ATOM     49  C   CYS A   1      97.132  38.874  -4.133  0.00  0.00    +0.239 C 
ATOM     50  N   SER A   2      97.529  39.295  -2.942  0.00  0.00    -0.295 N 
ATOM     51  H   SER A   2      96.870  39.853  -2.361  0.00  0.00    +0.150 HD
ATOM     52  O   CYS A   1      97.836  38.221  -4.900  0.00  0.00    -0.274 OA
BRANCH  49  53
ATOM     53  CA  CYS A   1      95.715  39.244  -4.486  0.00  0.00    +0.156 C 
BRANCH  53  54
ATOM     54  N   CYS A   1      95.356  38.759  -5.803  0.00  0.00    -0.237 NA
ATOM     55  H   CYS A   1      96.005  38.128  -6.316  0.00  0.00    +0.142 HD
ENDBRANCH  53  54
BRANCH  53  56
ATOM     56  CB  CYS A   1      94.794  38.617  -3.447  0.00  0.00    +0.095 C 
ATOM     57  SG  CYS A   1      95.007  36.814  -3.335  0.00  0.00    -0.080 S 
ENDBRANCH  53  56
ENDBRANCH  49  53
ENDBRANCH  48  50
BRANCH  48  58
ATOM     58  CB  SER A   2      99.712  40.259  -2.381  0.00  0.00    +0.166 C 
BRANCH  58  59
ATOM     59  OG  SER A   2     100.898  40.001  -1.650  0.00  0.00    -0.380 OA
ATOM     60  H   SER A   2     101.401  39.269  -2.087  0.00  0.00    +0.211 HD
ENDBRANCH  58  59
ENDBRANCH  48  58
ENDBRANCH  44  48
ENDBRANCH  42  46
ENDBRANCH  38  42
ENDBRANCH  37  40
BRANCH  37  61
ATOM     61  CB  LEU A   4     103.196  38.830   0.563  0.00  0.00    +0.029 C 
BRANCH  61  62
ATOM     62  CG  LEU A   4     104.459  39.266   1.303  0.00  0.00    +0.002 C 
ATOM     63  CD2 LEU A   4     105.499  38.163   1.237  0.00  0.00    +0.000 C 
ATOM     64  CD1 LEU A   4     104.983  40.551   0.689  0.00  0.00    +0.000 C 
ENDBRANCH  61  62
ENDBRANCH  37  61
ENDBRANCH   1  37
TORSDOF 29
REMARK  Name = ../refined-set-2016/1a4r/1a4r_pocket.pdb
REMARK  190 active torsions:
REMARK  status: ('A' for Active; 'I' for Inactive)
REMARK    1  A    between atoms: _1  and  _3
REMARK    2  A    between atoms: _3  and  _4
REMARK    3  A    between atoms: _3  and  _6
REMARK    4  A    between atoms: _9  and  _11
REMARK    5  A    between atoms: _11  and  _12
REMARK    6  A    between atoms: _11  and  _14
REMARK    7  A    between atoms: _17  and  _19
REMARK    8  A    between atoms: _19  and  _20
REMARK    9  A    between atoms: _22  and  _24
REMARK   10  A    between atoms: _24  and  _25
REMARK   11  A    between atoms: _24  and  _27
REMARK   12  A    between atoms: _27  and  _28
REMARK   13  A    between atoms: _31  and  _33
REMARK   14  A    between atoms: _33  and  _34
REMARK   15  A    between atoms: _33  and  _36
REMARK   16  A    between atoms: _39  and  _41
REMARK   17  A    between atoms: _41  and  _42
REMARK   18  A    between atoms: _45  and  _47
REMARK   19  A    between atoms: _47  and  _48
REMARK   20  A    between atoms: _47  and  _50
REMARK   21  A    between atoms: _53  and  _55
REMARK   22  A    between atoms: _55  and  _56
REMARK   23  A    between atoms: _58  and  _60
REMARK   24  A    between atoms: _60  and  _61
REMARK   25  A    between atoms: _60  and  _63
REMARK   26  A    between atoms: _63  and  _64
REMARK   27  A    between atoms: _64  and  _65
REMARK   28  A    between atoms: _65  and  _66
REMARK   29  A    between atoms: _66  and  _67
REMARK   30  A    between atoms: _71  and  _73
REMARK   31  A    between atoms: _73  and  _74
REMARK   32  A    between atoms: _73  and  _76
REMARK   33  A    between atoms: _76  and  _77
REMARK   34  A    between atoms: _80  and  _82
REMARK   35  A    between atoms: _82  and  _83
REMARK   36  A    between atoms: _82  and  _85
REMARK   37  A    between atoms: _87  and  _89
REMARK   38  A    between atoms: _89  and  _90
REMARK   39  A    between atoms: _89  and  _92
REMARK   40  A    between atoms: _92  and  _93
REMARK   41  A    between atoms: _96  and  _98
REMARK   42  A    between atoms: _98  and  _99
REMARK   43  A    between atoms: _98  and  _101
REMARK   44  A    between atoms: _101  and  _102
REMARK   45  A    between atoms: _105  and  _107
REMARK   46  A    between atoms: _107  and  _108
REMARK   47  A    between atoms: _107  and  _110
REMARK   48  A    between atoms: _110  and  _111
REMARK   49  A    between atoms: _114  and  _116
REMARK   50  A    between atoms: _116  and  _117
REMARK   51  A    between atoms: _116  and  _119
REMARK   52  A    between atoms: _119  and  _120
REMARK   53  A    between atoms: _122  and  _124
REMARK   54  A    between atoms: _124  and  _125
REMARK   55  A    between atoms: _124  and  _127
REMARK   56  A    between atoms: _127  and  _128
REMARK   57  A    between atoms: _135  and  _136
REMARK   58  A    between atoms: _141  and  _143
REMARK   59  A    between atoms: _143  and  _144
REMARK   60  A    between atoms: _143  and  _146
REMARK   61  A    between atoms: _146  and  _147
REMARK   62  A    between atoms: _149  and  _151
REMARK   63  A    between atoms: _151  and  _152
REMARK   64  A    between atoms: _151  and  _154
REMARK   65  A    between atoms: _154  and  _155
REMARK   66  A    between atoms: _155  and  _156
REMARK   67  A    between atoms: _159  and  _161
REMARK   68  A    between atoms: _161  and  _162
REMARK   69  A    between atoms: _161  and  _164
REMARK   70  A    between atoms: _168  and  _169
REMARK   71  A    between atoms: _174  and  _176
REMARK   72  A    between atoms: _176  and  _177
REMARK   73  A    between atoms: _176  and  _179
REMARK   74  A    between atoms: _179  and  _180
REMARK   75  A    between atoms: _183  and  _185
REMARK   76  A    between atoms: _185  and  _186
REMARK   77  A    between atoms: _185  and  _188
REMARK   78  A    between atoms: _191  and  _193
REMARK   79  A    between atoms: _193  and  _194
REMARK   80  A    between atoms: _193  and  _196
REMARK   81  A    between atoms: _196  and  _197
REMARK   82  A    between atoms: _203  and  _205
REMARK   83  A    between atoms: _205  and  _206
REMARK   84  A    between atoms: _205  and  _208
REMARK   85  A    between atoms: _208  and  _209
REMARK   86  A    between atoms: _212  and  _214
REMARK   87  A    between atoms: _214  and  _215
REMARK   88  A    between atoms: _214  and  _217
REMARK   89  A    between atoms: _217  and  _218
REMARK   90  A    between atoms: _223  and  _224
REMARK   91  A    between atoms: _226  and  _228
REMARK   92  A    between atoms: _228  and  _229
REMARK   93  A    between atoms: _228  and  _231
REMARK   94  A    between atoms: _231  and  _232
REMARK   95  A    between atoms: _235  and  _237
REMARK   96  A    between atoms: _237  and  _238
REMARK   97  A    between atoms: _237  and  _240
REMARK   98  A    between atoms: _240  and  _241
REMARK   99  A    between atoms: _244  and  _246
REMARK  100  A    between atoms: _246  and  _247
REMARK  101  A    between atoms: _250  and  _252
REMARK  102  A    between atoms: _252  and  _253
REMARK  103  A    between atoms: _255  and  _257
REMARK  104  A    between atoms: _257  and  _258
REMARK  105  A    between atoms: _257  and  _260
REMARK  106  A    between atoms: _260  and  _261
REMARK  107  A    between atoms: _261  and  _262
REMARK  108  A    between atoms: _267  and  _269
REMARK  109  A    between atoms: _269  and  _270
REMARK  110  A    between atoms: _269  and  _272
REMARK  111  A    between atoms: _274  and  _276
REMARK  112  A    between atoms: _276  and  _277
REMARK  113  A    between atoms: _276  and  _279
REMARK  114  A    between atoms: _279  and  _280
REMARK  115  A    between atoms: _282  and  _284
REMARK  116  A    between atoms: _284  and  _285
REMARK  117  A    between atoms: _284  and  _287
REMARK  118  A    between atoms: _290  and  _292
REMARK  119  A    between atoms: _292  and  _293
REMARK  120  A    between atoms: _292  and  _295
REMARK  121  A    between atoms: _298  and  _300
REMARK  122  A    between atoms: _300  and  _301
REMARK  123  A    between atoms: _303  and  _305
REMARK  124  A    between atoms: _305  and  _306
REMARK  125  A    between atoms: _305  and  _308
REMARK  126  A    between atoms: _308  and  _309
REMARK  127  A    between atoms: _312  and  _314
REMARK  128  A    between atoms: _314  and  _315
REMARK  129  A    between atoms: _314  and  _317
REMARK  130  A    between atoms: _317  and  _318
REMARK  131  A    between atoms: _318  and  _319
REMARK  132  A    between atoms: _324  and  _326
REMARK  133  A    between atoms: _326  and  _327
REMARK  134  A    between atoms: _326  and  _329
REMARK  135  A    between atoms: _329  and  _330
REMARK  136  A    between atoms: _333  and  _335
REMARK  137  A    between atoms: _335  and  _336
REMARK  138  A    between atoms: _335  and  _338
REMARK  139  A    between atoms: _338  and  _339
REMARK  140  A    between atoms: _342  and  _344
REMARK  141  A    between atoms: _344  and  _345
REMARK  142  A    between atoms: _344  and  _347
REMARK  143  A    between atoms: _347  and  _348
REMARK  144  A    between atoms: _351  and  _353
REMARK  145  A    between atoms: _353  and  _354
REMARK  146  A    between atoms: _353  and  _356
REMARK  147  A    between atoms: _356  and  _357
REMARK  148  A    between atoms: _357  and  _358
REMARK  149  A    between atoms: _358  and  _359
REMARK  150  A    between atoms: _368  and  _370
REMARK  151  A    between atoms: _370  and  _371
REMARK  152  A    between atoms: _370  and  _373
REMARK  153  A    between atoms: _373  and  _374
REMARK  154  A    between atoms: _377  and  _379
REMARK  155  A    between atoms: _379  and  _380
REMARK  156  A    between atoms: _379  and  _382
REMARK  157  A    between atoms: _382  and  _383
REMARK  158  A    between atoms: _386  and  _388
REMARK  159  A    between atoms: _388  and  _389
REMARK  160  A    between atoms: _388  and  _391
REMARK  161  A    between atoms: _393  and  _395
REMARK  162  A    between atoms: _395  and  _396
REMARK  163  A    between atoms: _395  and  _398
REMARK  164  A    between atoms: _398  and  _399
REMARK  165  A    between atoms: _401  and  _403
REMARK  166  A    between atoms: _403  and  _404
REMARK  167  A    between atoms: _407  and  _409
REMARK  168  A    between atoms: _409  and  _410
REMARK  169  A    between atoms: _409  and  _412
REMARK  170  A    between atoms: _412  and  _413
REMARK  171  A    between atoms: _416  and  _418
REMARK  172  A    between atoms: _418  and  _419
REMARK  173  A    between atoms: _418  and  _421
REMARK  174  A    between atoms: _421  and  _422
REMARK  175  A    between atoms: _425  and  _427
REMARK  176  A    between atoms: _427  and  _428
REMARK  177  A    between atoms: _427  and  _430
REMARK  178  A    between atoms: _430  and  _431
REMARK  179  A    between atoms: _431  and  _432
REMARK  180  A    between atoms: _437  and  _439
REMARK  181  A    between atoms: _439  and  _440
REMARK  182  A    between atoms: _439  and  _442
REMARK  183  A    between atoms: _442  and  _443
REMARK  184  A    between atoms: _443  and  _444
REMARK  185  A    between atoms: _444  and  _445
REMARK  186  A    between atoms: _445  and  _446
REMARK  187  A    between atoms: _450  and  _452
REMARK  188  A    between atoms: _452  and  _453
REMARK  189  A    between atoms: _452  and  _455
REMARK  190  A    between atoms: _455  and  _456
REMARK                            x       y       z     vdW  Elec       q    Type
REMARK                         _______ _______ _______ _____ _____    ______ ____
ROOT
ATOM      1  CA  LEU A   1      92.849  38.943  -0.053  0.00  0.00    +0.133 C 
ENDROOT
BRANCH   1   2
ATOM      2  N   LEU A   1      93.032  40.269  -0.638  0.00  0.00    -0.239 NA
ATOM      3  H   LEU A   1      93.794  40.877  -0.277  0.00  0.00    +0.142 HD
ENDBRANCH   1   2
BRANCH   1   4
ATOM      4  C   LEU A   1      91.450  38.724   0.505  0.00  0.00    +0.224 C 
ATOM      5  O   LEU A   1      90.830  37.700   0.240  0.00  0.00    -0.287 OA
ENDBRANCH   1   4
BRANCH   1   6
ATOM      6  CB  LEU A   1      93.891  38.721   1.048  0.00  0.00    +0.025 C 
BRANCH   6   7
ATOM      7  CG  LEU A   1      94.179  37.292   1.512  0.00  0.00    +0.002 C 
ATOM      8  CD2 LEU A   1      95.197  37.320   2.634  0.00  0.00    +0.000 C 
ATOM      9  CD1 LEU A   1      94.693  36.475   0.361  0.00  0.00    +0.000 C 
ENDBRANCH   6   7
ENDBRANCH   1   6
TORSDOF 4
