REMARK  Name = ../refined-set-2016/2qbu/2qbu_pocket.pdb
REMARK  198 active torsions:
REMARK  status: ('A' for Active; 'I' for Inactive)
REMARK    1  A    between atoms: _1  and  _3
REMARK    2  A    between atoms: _3  and  _4
REMARK    3  A    between atoms: _6  and  _8
REMARK    4  A    between atoms: _8  and  _9
REMARK    5  A    between atoms: _8  and  _11
REMARK    6  A    between atoms: _14  and  _16
REMARK    7  A    between atoms: _16  and  _17
REMARK    8  A    between atoms: _20  and  _21
REMARK    9  A    between atoms: _26  and  _28
REMARK   10  A    between atoms: _28  and  _29
REMARK   11  A    between atoms: _31  and  _33
REMARK   12  A    between atoms: _33  and  _34
REMARK   13  A    between atoms: _33  and  _36
REMARK   14  A    between atoms: _36  and  _37
REMARK   15  A    between atoms: _40  and  _42
REMARK   16  A    between atoms: _42  and  _43
REMARK   17  A    between atoms: _42  and  _45
REMARK   18  A    between atoms: _45  and  _46
REMARK   19  A    between atoms: _49  and  _51
REMARK   20  A    between atoms: _51  and  _52
REMARK   21  A    between atoms: _51  and  _54
REMARK   22  A    between atoms: _54  and  _55
REMARK   23  A    between atoms: _58  and  _60
REMARK   24  A    between atoms: _60  and  _61
REMARK   25  A    between atoms: _60  and  _63
REMARK   26  A    between atoms: _63  and  _64
REMARK   27  A    between atoms: _67  and  _69
REMARK   28  A    between atoms: _69  and  _70
REMARK   29  A    between atoms: _69  and  _72
REMARK   30  A    between atoms: _72  and  _73
REMARK   31  A    between atoms: _76  and  _78
REMARK   32  A    between atoms: _78  and  _79
REMARK   33  A    between atoms: _81  and  _83
REMARK   34  A    between atoms: _83  and  _84
REMARK   35  A    between atoms: _83  and  _86
REMARK   36  A    between atoms: _86  and  _87
REMARK   37  A    between atoms: _91  and  _92
REMARK   38  A    between atoms: _97  and  _99
REMARK   39  A    between atoms: _99  and  _100
REMARK   40  A    between atoms: _99  and  _102
REMARK   41  A    between atoms: _102  and  _103
REMARK   42  A    between atoms: _105  and  _107
REMARK   43  A    between atoms: _107  and  _108
REMARK   44  A    between atoms: _107  and  _110
REMARK   45  A    between atoms: _110  and  _111
REMARK   46  A    between atoms: _114  and  _116
REMARK   47  A    between atoms: _116  and  _117
REMARK   48  A    between atoms: _116  and  _119
REMARK   49  A    between atoms: _119  and  _120
REMARK   50  A    between atoms: _125  and  _126
REMARK   51  A    between atoms: _128  and  _130
REMARK   52  A    between atoms: _130  and  _131
REMARK   53  A    between atoms: _130  and  _133
REMARK   54  A    between atoms: _133  and  _134
REMARK   55  A    between atoms: _136  and  _138
REMARK   56  A    between atoms: _138  and  _139
REMARK   57  A    between atoms: _138  and  _141
REMARK   58  A    between atoms: _141  and  _142
REMARK   59  A    between atoms: _145  and  _147
REMARK   60  A    between atoms: _147  and  _148
REMARK   61  A    between atoms: _147  and  _150
REMARK   62  A    between atoms: _150  and  _151
REMARK   63  A    between atoms: _157  and  _159
REMARK   64  A    between atoms: _159  and  _160
REMARK   65  A    between atoms: _162  and  _164
REMARK   66  A    between atoms: _164  and  _165
REMARK   67  A    between atoms: _164  and  _167
REMARK   68  A    between atoms: _170  and  _172
REMARK   69  A    between atoms: _172  and  _173
REMARK   70  A    between atoms: _172  and  _175
REMARK   71  A    between atoms: _175  and  _176
REMARK   72  A    between atoms: _179  and  _181
REMARK   73  A    between atoms: _181  and  _182
REMARK   74  A    between atoms: _181  and  _184
REMARK   75  A    between atoms: _184  and  _185
REMARK   76  A    between atoms: _187  and  _189
REMARK   77  A    between atoms: _189  and  _190
REMARK   78  A    between atoms: _189  and  _192
REMARK   79  A    between atoms: _192  and  _193
REMARK   80  A    between atoms: _199  and  _201
REMARK   81  A    between atoms: _201  and  _202
REMARK   82  A    between atoms: _201  and  _204
REMARK   83  A    between atoms: _204  and  _205
REMARK   84  A    between atoms: _208  and  _210
REMARK   85  A    between atoms: _210  and  _211
REMARK   86  A    between atoms: _214  and  _216
REMARK   87  A    between atoms: _216  and  _217
REMARK   88  A    between atoms: _216  and  _219
REMARK   89  A    between atoms: _221  and  _223
REMARK   90  A    between atoms: _223  and  _224
REMARK   91  A    between atoms: _223  and  _226
REMARK   92  A    between atoms: _226  and  _227
REMARK   93  A    between atoms: _230  and  _232
REMARK   94  A    between atoms: _232  and  _233
REMARK   95  A    between atoms: _232  and  _235
REMARK   96  A    between atoms: _239  and  _240
REMARK   97  A    between atoms: _245  and  _247
REMARK   98  A    between atoms: _247  and  _248
REMARK   99  A    between atoms: _247  and  _250
REMARK  100  A    between atoms: _253  and  _255
REMARK  101  A    between atoms: _255  and  _256
REMARK  102  A    between atoms: _255  and  _258
REMARK  103  A    between atoms: _258  and  _259
REMARK  104  A    between atoms: _262  and  _264
REMARK  105  A    between atoms: _264  and  _265
REMARK  106  A    between atoms: _264  and  _267
REMARK  107  A    between atoms: _267  and  _268
REMARK  108  A    between atoms: _268  and  _269
REMARK  109  A    between atoms: _271  and  _273
REMARK  110  A    between atoms: _273  and  _274
REMARK  111  A    between atoms: _273  and  _276
REMARK  112  A    between atoms: _276  and  _277
REMARK  113  A    between atoms: _277  and  _278
REMARK  114  A    between atoms: _278  and  _279
REMARK  115  A    between atoms: _279  and  _280
REMARK  116  A    between atoms: _284  and  _286
REMARK  117  A    between atoms: _286  and  _287
REMARK  118  A    between atoms: _286  and  _289
REMARK  119  A    between atoms: _289  and  _290
REMARK  120  A    between atoms: _293  and  _295
REMARK  121  A    between atoms: _295  and  _296
REMARK  122  A    between atoms: _295  and  _298
REMARK  123  A    between atoms: _298  and  _299
REMARK  124  A    between atoms: _301  and  _303
REMARK  125  A    between atoms: _303  and  _304
REMARK  126  A    between atoms: _303  and  _306
REMARK  127  A    between atoms: _306  and  _307
REMARK  128  A    between atoms: _307  and  _308
REMARK  129  A    between atoms: _308  and  _309
REMARK  130  A    between atoms: _318  and  _320
REMARK  131  A    between atoms: _320  and  _321
REMARK  132  A    between atoms: _320  and  _323
REMARK  133  A    between atoms: _323  and  _324
REMARK  134  A    between atoms: _329  and  _331
REMARK  135  A    between atoms: _331  and  _332
REMARK  136  A    between atoms: _331  and  _334
REMARK  137  A    between atoms: _334  and  _335
REMARK  138  A    between atoms: _337  and  _339
REMARK  139  A    between atoms: _339  and  _340
REMARK  140  A    between atoms: _339  and  _342
REMARK  141  A    between atoms: _345  and  _347
REMARK  142  A    between atoms: _347  and  _348
REMARK  143  A    between atoms: _351  and  _353
REMARK  144  A    between atoms: _353  and  _354
REMARK  145  A    between atoms: _353  and  _356
REMARK  146  A    between atoms: _356  and  _357
REMARK  147  A    between atoms: _362  and  _364
REMARK  148  A    between atoms: _364  and  _365
REMARK  149  A    between atoms: _364  and  _367
REMARK  150  A    between atoms: _369  and  _371
REMARK  151  A    between atoms: _371  and  _372
REMARK  152  A    between atoms: _371  and  _374
REMARK  153  A    between atoms: _374  and  _375
REMARK  154  A    between atoms: _377  and  _379
REMARK  155  A    between atoms: _379  and  _380
REMARK  156  A    between atoms: _379  and  _382
REMARK  157  A    between atoms: _382  and  _383
REMARK  158  A    between atoms: _383  and  _384
REMARK  159  A    between atoms: _386  and  _388
REMARK  160  A    between atoms: _388  and  _389
REMARK  161  A    between atoms: _388  and  _391
REMARK  162  A    between atoms: _391  and  _392
REMARK  163  A    between atoms: _392  and  _393
REMARK  164  A    between atoms: _396  and  _398
REMARK  165  A    between atoms: _398  and  _399
REMARK  166  A    between atoms: _398  and  _401
REMARK  167  A    between atoms: _404  and  _406
REMARK  168  A    between atoms: _406  and  _407
REMARK  169  A    between atoms: _409  and  _411
REMARK  170  A    between atoms: _411  and  _412
REMARK  171  A    between atoms: _414  and  _416
REMARK  172  A    between atoms: _416  and  _417
REMARK  173  A    between atoms: _416  and  _419
REMARK  174  A    between atoms: _419  and  _420
REMARK  175  A    between atoms: _425  and  _426
REMARK  176  A    between atoms: _428  and  _430
REMARK  177  A    between atoms: _430  and  _431
REMARK  178  A    between atoms: _430  and  _433
REMARK  179  A    between atoms: _433  and  _434
REMARK  180  A    between atoms: _437  and  _439
REMARK  181  A    between atoms: _439  and  _440
REMARK  182  A    between atoms: _443  and  _445
REMARK  183  A    between atoms: _445  and  _446
REMARK  184  A    between atoms: _445  and  _448
REMARK  185  A    between atoms: _448  and  _449
REMARK  186  A    between atoms: _452  and  _454
REMARK  187  A    between atoms: _454  and  _455
REMARK  188  A    between atoms: _454  and  _457
REMARK  189  A    between atoms: _457  and  _458
REMARK  190  A    between atoms: _461  and  _463
REMARK  191  A    between atoms: _463  and  _464
REMARK  192  A    between atoms: _463  and  _466
REMARK  193  A    between atoms: _466  and  _467
REMARK  194  A    between atoms: _470  and  _472
REMARK  195  A    between atoms: _472  and  _473
REMARK  196  A    between atoms: _472  and  _475
REMARK  197  A    between atoms: _478  and  _480
REMARK  198  A    between atoms: _480  and  _481
REMARK                            x       y       z     vdW  Elec       q    Type
REMARK                         _______ _______ _______ _____ _____    ______ ____
ROOT
ATOM      1  C   GLY A   3     -27.880  43.650   0.291  0.00  0.00    +0.246 C 
ATOM      2  O   GLY A   3     -26.693  43.824   0.547  0.00  0.00    -0.273 OA
ATOM      3  N   PRO A   4     -28.353  43.594  -0.968  0.00  0.00    -0.272 N 
ATOM      4  CD  PRO A   4     -29.790  43.547  -1.315  0.00  0.00    +0.094 C 
ATOM      5  CG  PRO A   4     -29.800  43.634  -2.828  0.00  0.00    +0.024 C 
ATOM      6  CB  PRO A   4     -28.459  43.018  -3.239  0.00  0.00    +0.031 C 
ATOM      7  CA  PRO A   4     -27.499  43.543  -2.168  0.00  0.00    +0.152 C 
ENDROOT
BRANCH   7   8
ATOM      8  C   PRO A   4     -26.863  44.864  -2.641  0.00  0.00    +0.241 C 
ATOM      9  N   GLY A   5     -27.234  46.009  -2.058  0.00  0.00    -0.295 N 
ATOM     10  H   GLY A   5     -27.905  45.986  -1.264  0.00  0.00    +0.150 HD
ATOM     11  O   PRO A   4     -26.032  44.822  -3.556  0.00  0.00    -0.273 OA
BRANCH   9  12
ATOM     12  CA  GLY A   5     -26.702  47.311  -2.528  0.00  0.00    +0.176 C 
BRANCH  12  13
ATOM     13  C   GLY A   5     -27.543  48.517  -2.130  0.00  0.00    +0.243 C 
ATOM     14  O   GLY A   5     -27.068  49.424  -1.440  0.00  0.00    -0.273 OA
ATOM     15  N   ASP A   6     -28.812  48.493  -2.540  0.00  0.00    -0.297 N 
ATOM     16  H   ASP A   6     -29.130  47.675  -3.099  0.00  0.00    +0.150 HD
BRANCH  15  17
ATOM     17  CA  ASP A   6     -29.779  49.544  -2.252  0.00  0.00    +0.148 C 
BRANCH  17  18
ATOM     18  C   ASP A   6     -30.042  49.635  -0.746  0.00  0.00    +0.227 C 
ATOM     19  O   ASP A   6     -30.467  48.666  -0.109  0.00  0.00    -0.286 OA
ENDBRANCH  17  18
BRANCH  17  20
ATOM     20  CB  ASP A   6     -31.070  49.228  -3.038  0.00  0.00    +0.142 C 
BRANCH  20  21
ATOM     21  CG  ASP A   6     -32.091  50.349  -3.011  0.00  0.00    +0.367 C 
ATOM     22  OD2 ASP A   6     -31.901  51.360  -2.311  0.00  0.00    -0.246 OA
ATOM     23  OD1 ASP A   6     -33.128  50.188  -3.692  0.00  0.00    -0.246 OA
ENDBRANCH  20  21
ENDBRANCH  17  20
ENDBRANCH  15  17
ENDBRANCH  12  13
ENDBRANCH   9  12
ENDBRANCH   7   8
BRANCH   1  24
ATOM     24  CA  GLY A   3     -28.894  43.457   1.424  0.00  0.00    +0.176 C 
BRANCH  24  27
ATOM     25  C   VAL A   2     -28.007  44.704   3.314  0.00  0.00    +0.241 C 
ATOM     26  O   VAL A   2     -28.303  45.773   2.789  0.00  0.00    -0.273 OA
ATOM     27  N   GLY A   3     -28.291  43.531   2.751  0.00  0.00    -0.295 N 
ATOM     28  H   GLY A   3     -28.079  42.653   3.266  0.00  0.00    +0.150 HD
BRANCH  25  29
ATOM     29  CA  VAL A   2     -27.333  44.694   4.692  0.00  0.00    +0.148 C 
BRANCH  29  32
ATOM     30  C   GLY A   1     -27.693  42.794   6.190  0.00  0.00    +0.240 C 
ATOM     31  O   GLY A   1     -28.650  43.349   6.771  0.00  0.00    -0.274 OA
ATOM     32  N   VAL A   2     -27.007  43.361   5.193  0.00  0.00    -0.297 N 
ATOM     33  H   VAL A   2     -26.218  42.838   4.761  0.00  0.00    +0.150 HD
BRANCH  30  34
ATOM     34  CA  GLY A   1     -27.250  41.401   6.594  0.00  0.00    +0.169 C 
BRANCH  34  35
ATOM     35  N   GLY A   1     -27.012  41.293   8.032  0.00  0.00    -0.236 NA
ATOM     36  H   GLY A   1     -27.620  40.676   8.608  0.00  0.00    +0.142 HD
ENDBRANCH  34  35
ENDBRANCH  30  34
ENDBRANCH  29  32
BRANCH  29  37
ATOM     37  CB  VAL A   2     -26.096  45.688   4.725  0.00  0.00    +0.027 C 
ATOM     38  CG2 VAL A   2     -25.650  45.912   6.153  0.00  0.00    +0.002 C 
ATOM     39  CG1 VAL A   2     -24.958  45.164   3.877  0.00  0.00    +0.002 C 
ENDBRANCH  29  37
ENDBRANCH  25  29
ENDBRANCH  24  27
ENDBRANCH   1  24
TORSDOF 14
REMARK  Name = ../refined-set-2016/2qbu/2qbu_pocket.pdb
REMARK  198 active torsions:
REMARK  status: ('A' for Active; 'I' for Inactive)
REMARK    1  A    between atoms: _1  and  _3
REMARK    2  A    between atoms: _3  and  _4
REMARK    3  A    between atoms: _6  and  _8
REMARK    4  A    between atoms: _8  and  _9
REMARK    5  A    between atoms: _8  and  _11
REMARK    6  A    between atoms: _14  and  _16
REMARK    7  A    between atoms: _16  and  _17
REMARK    8  A    between atoms: _20  and  _21
REMARK    9  A    between atoms: _26  and  _28
REMARK   10  A    between atoms: _28  and  _29
REMARK   11  A    between atoms: _31  and  _33
REMARK   12  A    between atoms: _33  and  _34
REMARK   13  A    between atoms: _33  and  _36
REMARK   14  A    between atoms: _36  and  _37
REMARK   15  A    between atoms: _40  and  _42
REMARK   16  A    between atoms: _42  and  _43
REMARK   17  A    between atoms: _42  and  _45
REMARK   18  A    between atoms: _45  and  _46
REMARK   19  A    between atoms: _49  and  _51
REMARK   20  A    between atoms: _51  and  _52
REMARK   21  A    between atoms: _51  and  _54
REMARK   22  A    between atoms: _54  and  _55
REMARK   23  A    between atoms: _58  and  _60
REMARK   24  A    between atoms: _60  and  _61
REMARK   25  A    between atoms: _60  and  _63
REMARK   26  A    between atoms: _63  and  _64
REMARK   27  A    between atoms: _67  and  _69
REMARK   28  A    between atoms: _69  and  _70
REMARK   29  A    between atoms: _69  and  _72
REMARK   30  A    between atoms: _72  and  _73
REMARK   31  A    between atoms: _76  and  _78
REMARK   32  A    between atoms: _78  and  _79
REMARK   33  A    between atoms: _81  and  _83
REMARK   34  A    between atoms: _83  and  _84
REMARK   35  A    between atoms: _83  and  _86
REMARK   36  A    between atoms: _86  and  _87
REMARK   37  A    between atoms: _91  and  _92
REMARK   38  A    between atoms: _97  and  _99
REMARK   39  A    between atoms: _99  and  _100
REMARK   40  A    between atoms: _99  and  _102
REMARK   41  A    between atoms: _102  and  _103
REMARK   42  A    between atoms: _105  and  _107
REMARK   43  A    between atoms: _107  and  _108
REMARK   44  A    between atoms: _107  and  _110
REMARK   45  A    between atoms: _110  and  _111
REMARK   46  A    between atoms: _114  and  _116
REMARK   47  A    between atoms: _116  and  _117
REMARK   48  A    between atoms: _116  and  _119
REMARK   49  A    between atoms: _119  and  _120
REMARK   50  A    between atoms: _125  and  _126
REMARK   51  A    between atoms: _128  and  _130
REMARK   52  A    between atoms: _130  and  _131
REMARK   53  A    between atoms: _130  and  _133
REMARK   54  A    between atoms: _133  and  _134
REMARK   55  A    between atoms: _136  and  _138
REMARK   56  A    between atoms: _138  and  _139
REMARK   57  A    between atoms: _138  and  _141
REMARK   58  A    between atoms: _141  and  _142
REMARK   59  A    between atoms: _145  and  _147
REMARK   60  A    between atoms: _147  and  _148
REMARK   61  A    between atoms: _147  and  _150
REMARK   62  A    between atoms: _150  and  _151
REMARK   63  A    between atoms: _157  and  _159
REMARK   64  A    between atoms: _159  and  _160
REMARK   65  A    between atoms: _162  and  _164
REMARK   66  A    between atoms: _164  and  _165
REMARK   67  A    between atoms: _164  and  _167
REMARK   68  A    between atoms: _170  and  _172
REMARK   69  A    between atoms: _172  and  _173
REMARK   70  A    between atoms: _172  and  _175
REMARK   71  A    between atoms: _175  and  _176
REMARK   72  A    between atoms: _179  and  _181
REMARK   73  A    between atoms: _181  and  _182
REMARK   74  A    between atoms: _181  and  _184
REMARK   75  A    between atoms: _184  and  _185
REMARK   76  A    between atoms: _187  and  _189
REMARK   77  A    between atoms: _189  and  _190
REMARK   78  A    between atoms: _189  and  _192
REMARK   79  A    between atoms: _192  and  _193
REMARK   80  A    between atoms: _199  and  _201
REMARK   81  A    between atoms: _201  and  _202
REMARK   82  A    between atoms: _201  and  _204
REMARK   83  A    between atoms: _204  and  _205
REMARK   84  A    between atoms: _208  and  _210
REMARK   85  A    between atoms: _210  and  _211
REMARK   86  A    between atoms: _214  and  _216
REMARK   87  A    between atoms: _216  and  _217
REMARK   88  A    between atoms: _216  and  _219
REMARK   89  A    between atoms: _221  and  _223
REMARK   90  A    between atoms: _223  and  _224
REMARK   91  A    between atoms: _223  and  _226
REMARK   92  A    between atoms: _226  and  _227
REMARK   93  A    between atoms: _230  and  _232
REMARK   94  A    between atoms: _232  and  _233
REMARK   95  A    between atoms: _232  and  _235
REMARK   96  A    between atoms: _239  and  _240
REMARK   97  A    between atoms: _245  and  _247
REMARK   98  A    between atoms: _247  and  _248
REMARK   99  A    between atoms: _247  and  _250
REMARK  100  A    between atoms: _253  and  _255
REMARK  101  A    between atoms: _255  and  _256
REMARK  102  A    between atoms: _255  and  _258
REMARK  103  A    between atoms: _258  and  _259
REMARK  104  A    between atoms: _262  and  _264
REMARK  105  A    between atoms: _264  and  _265
REMARK  106  A    between atoms: _264  and  _267
REMARK  107  A    between atoms: _267  and  _268
REMARK  108  A    between atoms: _268  and  _269
REMARK  109  A    between atoms: _271  and  _273
REMARK  110  A    between atoms: _273  and  _274
REMARK  111  A    between atoms: _273  and  _276
REMARK  112  A    between atoms: _276  and  _277
REMARK  113  A    between atoms: _277  and  _278
REMARK  114  A    between atoms: _278  and  _279
REMARK  115  A    between atoms: _279  and  _280
REMARK  116  A    between atoms: _284  and  _286
REMARK  117  A    between atoms: _286  and  _287
REMARK  118  A    between atoms: _286  and  _289
REMARK  119  A    between atoms: _289  and  _290
REMARK  120  A    between atoms: _293  and  _295
REMARK  121  A    between atoms: _295  and  _296
REMARK  122  A    between atoms: _295  and  _298
REMARK  123  A    between atoms: _298  and  _299
REMARK  124  A    between atoms: _301  and  _303
REMARK  125  A    between atoms: _303  and  _304
REMARK  126  A    between atoms: _303  and  _306
REMARK  127  A    between atoms: _306  and  _307
REMARK  128  A    between atoms: _307  and  _308
REMARK  129  A    between atoms: _308  and  _309
REMARK  130  A    between atoms: _318  and  _320
REMARK  131  A    between atoms: _320  and  _321
REMARK  132  A    between atoms: _320  and  _323
REMARK  133  A    between atoms: _323  and  _324
REMARK  134  A    between atoms: _329  and  _331
REMARK  135  A    between atoms: _331  and  _332
REMARK  136  A    between atoms: _331  and  _334
REMARK  137  A    between atoms: _334  and  _335
REMARK  138  A    between atoms: _337  and  _339
REMARK  139  A    between atoms: _339  and  _340
REMARK  140  A    between atoms: _339  and  _342
REMARK  141  A    between atoms: _345  and  _347
REMARK  142  A    between atoms: _347  and  _348
REMARK  143  A    between atoms: _351  and  _353
REMARK  144  A    between atoms: _353  and  _354
REMARK  145  A    between atoms: _353  and  _356
REMARK  146  A    between atoms: _356  and  _357
REMARK  147  A    between atoms: _362  and  _364
REMARK  148  A    between atoms: _364  and  _365
REMARK  149  A    between atoms: _364  and  _367
REMARK  150  A    between atoms: _369  and  _371
REMARK  151  A    between atoms: _371  and  _372
REMARK  152  A    between atoms: _371  and  _374
REMARK  153  A    between atoms: _374  and  _375
REMARK  154  A    between atoms: _377  and  _379
REMARK  155  A    between atoms: _379  and  _380
REMARK  156  A    between atoms: _379  and  _382
REMARK  157  A    between atoms: _382  and  _383
REMARK  158  A    between atoms: _383  and  _384
REMARK  159  A    between atoms: _386  and  _388
REMARK  160  A    between atoms: _388  and  _389
REMARK  161  A    between atoms: _388  and  _391
REMARK  162  A    between atoms: _391  and  _392
REMARK  163  A    between atoms: _392  and  _393
REMARK  164  A    between atoms: _396  and  _398
REMARK  165  A    between atoms: _398  and  _399
REMARK  166  A    between atoms: _398  and  _401
REMARK  167  A    between atoms: _404  and  _406
REMARK  168  A    between atoms: _406  and  _407
REMARK  169  A    between atoms: _409  and  _411
REMARK  170  A    between atoms: _411  and  _412
REMARK  171  A    between atoms: _414  and  _416
REMARK  172  A    between atoms: _416  and  _417
REMARK  173  A    between atoms: _416  and  _419
REMARK  174  A    between atoms: _419  and  _420
REMARK  175  A    between atoms: _425  and  _426
REMARK  176  A    between atoms: _428  and  _430
REMARK  177  A    between atoms: _430  and  _431
REMARK  178  A    between atoms: _430  and  _433
REMARK  179  A    between atoms: _433  and  _434
REMARK  180  A    between atoms: _437  and  _439
REMARK  181  A    between atoms: _439  and  _440
REMARK  182  A    between atoms: _443  and  _445
REMARK  183  A    between atoms: _445  and  _446
REMARK  184  A    between atoms: _445  and  _448
REMARK  185  A    between atoms: _448  and  _449
REMARK  186  A    between atoms: _452  and  _454
REMARK  187  A    between atoms: _454  and  _455
REMARK  188  A    between atoms: _454  and  _457
REMARK  189  A    between atoms: _457  and  _458
REMARK  190  A    between atoms: _461  and  _463
REMARK  191  A    between atoms: _463  and  _464
REMARK  192  A    between atoms: _463  and  _466
REMARK  193  A    between atoms: _466  and  _467
REMARK  194  A    between atoms: _470  and  _472
REMARK  195  A    between atoms: _472  and  _473
REMARK  196  A    between atoms: _472  and  _475
REMARK  197  A    between atoms: _478  and  _480
REMARK  198  A    between atoms: _480  and  _481
REMARK                            x       y       z     vdW  Elec       q    Type
REMARK                         _______ _______ _______ _____ _____    ______ ____
ROOT
ATOM      1  CA  ILE A   1     -19.163  47.289  -0.241  0.00  0.00    +0.133 C 
ENDROOT
BRANCH   1   2
ATOM      2  N   ILE A   1     -17.867  47.021   0.358  0.00  0.00    -0.239 NA
ATOM      3  H   ILE A   1     -17.370  46.136   0.132  0.00  0.00    +0.142 HD
ENDBRANCH   1   2
BRANCH   1   4
ATOM      4  C   ILE A   1     -20.253  47.315   0.842  0.00  0.00    +0.224 C 
ATOM      5  O   ILE A   1     -21.154  48.131   0.781  0.00  0.00    -0.287 OA
ENDBRANCH   1   4
BRANCH   1   6
ATOM      6  CB  ILE A   1     -19.487  46.297  -1.401  0.00  0.00    +0.023 C 
ATOM      7  CG2 ILE A   1     -20.820  46.663  -2.061  0.00  0.00    +0.002 C 
BRANCH   6   8
ATOM      8  CG1 ILE A   1     -18.376  46.356  -2.464  0.00  0.00    +0.002 C 
ATOM      9  CD1 ILE A   1     -18.256  45.091  -3.345  0.00  0.00    +0.000 C 
ENDBRANCH   6   8
ENDBRANCH   1   6
TORSDOF 4
REMARK  Name = ../refined-set-2016/2qbu/2qbu_pocket.pdb
REMARK  198 active torsions:
REMARK  status: ('A' for Active; 'I' for Inactive)
REMARK    1  A    between atoms: _1  and  _3
REMARK    2  A    between atoms: _3  and  _4
REMARK    3  A    between atoms: _6  and  _8
REMARK    4  A    between atoms: _8  and  _9
REMARK    5  A    between atoms: _8  and  _11
REMARK    6  A    between atoms: _14  and  _16
REMARK    7  A    between atoms: _16  and  _17
REMARK    8  A    between atoms: _20  and  _21
REMARK    9  A    between atoms: _26  and  _28
REMARK   10  A    between atoms: _28  and  _29
REMARK   11  A    between atoms: _31  and  _33
REMARK   12  A    between atoms: _33  and  _34
REMARK   13  A    between atoms: _33  and  _36
REMARK   14  A    between atoms: _36  and  _37
REMARK   15  A    between atoms: _40  and  _42
REMARK   16  A    between atoms: _42  and  _43
REMARK   17  A    between atoms: _42  and  _45
REMARK   18  A    between atoms: _45  and  _46
REMARK   19  A    between atoms: _49  and  _51
REMARK   20  A    between atoms: _51  and  _52
REMARK   21  A    between atoms: _51  and  _54
REMARK   22  A    between atoms: _54  and  _55
REMARK   23  A    between atoms: _58  and  _60
REMARK   24  A    between atoms: _60  and  _61
REMARK   25  A    between atoms: _60  and  _63
REMARK   26  A    between atoms: _63  and  _64
REMARK   27  A    between atoms: _67  and  _69
REMARK   28  A    between atoms: _69  and  _70
REMARK   29  A    between atoms: _69  and  _72
REMARK   30  A    between atoms: _72  and  _73
REMARK   31  A    between atoms: _76  and  _78
REMARK   32  A    between atoms: _78  and  _79
REMARK   33  A    between atoms: _81  and  _83
REMARK   34  A    between atoms: _83  and  _84
REMARK   35  A    between atoms: _83  and  _86
REMARK   36  A    between atoms: _86  and  _87
REMARK   37  A    between atoms: _91  and  _92
REMARK   38  A    between atoms: _97  and  _99
REMARK   39  A    between atoms: _99  and  _100
REMARK   40  A    between atoms: _99  and  _102
REMARK   41  A    between atoms: _102  and  _103
REMARK   42  A    between atoms: _105  and  _107
REMARK   43  A    between atoms: _107  and  _108
REMARK   44  A    between atoms: _107  and  _110
REMARK   45  A    between atoms: _110  and  _111
REMARK   46  A    between atoms: _114  and  _116
REMARK   47  A    between atoms: _116  and  _117
REMARK   48  A    between atoms: _116  and  _119
REMARK   49  A    between atoms: _119  and  _120
REMARK   50  A    between atoms: _125  and  _126
REMARK   51  A    between atoms: _128  and  _130
REMARK   52  A    between atoms: _130  and  _131
REMARK   53  A    between atoms: _130  and  _133
REMARK   54  A    between atoms: _133  and  _134
REMARK   55  A    between atoms: _136  and  _138
REMARK   56  A    between atoms: _138  and  _139
REMARK   57  A    between atoms: _138  and  _141
REMARK   58  A    between atoms: _141  and  _142
REMARK   59  A    between atoms: _145  and  _147
REMARK   60  A    between atoms: _147  and  _148
REMARK   61  A    between atoms: _147  and  _150
REMARK   62  A    between atoms: _150  and  _151
REMARK   63  A    between atoms: _157  and  _159
REMARK   64  A    between atoms: _159  and  _160
REMARK   65  A    between atoms: _162  and  _164
REMARK   66  A    between atoms: _164  and  _165
REMARK   67  A    between atoms: _164  and  _167
REMARK   68  A    between atoms: _170  and  _172
REMARK   69  A    between atoms: _172  and  _173
REMARK   70  A    between atoms: _172  and  _175
REMARK   71  A    between atoms: _175  and  _176
REMARK   72  A    between atoms: _179  and  _181
REMARK   73  A    between atoms: _181  and  _182
REMARK   74  A    between atoms: _181  and  _184
REMARK   75  A    between atoms: _184  and  _185
REMARK   76  A    between atoms: _187  and  _189
REMARK   77  A    between atoms: _189  and  _190
REMARK   78  A    between atoms: _189  and  _192
REMARK   79  A    between atoms: _192  and  _193
REMARK   80  A    between atoms: _199  and  _201
REMARK   81  A    between atoms: _201  and  _202
REMARK   82  A    between atoms: _201  and  _204
REMARK   83  A    between atoms: _204  and  _205
REMARK   84  A    between atoms: _208  and  _210
REMARK   85  A    between atoms: _210  and  _211
REMARK   86  A    between atoms: _214  and  _216
REMARK   87  A    between atoms: _216  and  _217
REMARK   88  A    between atoms: _216  and  _219
REMARK   89  A    between atoms: _221  and  _223
REMARK   90  A    between atoms: _223  and  _224
REMARK   91  A    between atoms: _223  and  _226
REMARK   92  A    between atoms: _226  and  _227
REMARK   93  A    between atoms: _230  and  _232
REMARK   94  A    between atoms: _232  and  _233
REMARK   95  A    between atoms: _232  and  _235
REMARK   96  A    between atoms: _239  and  _240
REMARK   97  A    between atoms: _245  and  _247
REMARK   98  A    between atoms: _247  and  _248
REMARK   99  A    between atoms: _247  and  _250
REMARK  100  A    between atoms: _253  and  _255
REMARK  101  A    between atoms: _255  and  _256
REMARK  102  A    between atoms: _255  and  _258
REMARK  103  A    between atoms: _258  and  _259
REMARK  104  A    between atoms: _262  and  _264
REMARK  105  A    between atoms: _264  and  _265
REMARK  106  A    between atoms: _264  and  _267
REMARK  107  A    between atoms: _267  and  _268
REMARK  108  A    between atoms: _268  and  _269
REMARK  109  A    between atoms: _271  and  _273
REMARK  110  A    between atoms: _273  and  _274
REMARK  111  A    between atoms: _273  and  _276
REMARK  112  A    between atoms: _276  and  _277
REMARK  113  A    between atoms: _277  and  _278
REMARK  114  A    between atoms: _278  and  _279
REMARK  115  A    between atoms: _279  and  _280
REMARK  116  A    between atoms: _284  and  _286
REMARK  117  A    between atoms: _286  and  _287
REMARK  118  A    between atoms: _286  and  _289
REMARK  119  A    between atoms: _289  and  _290
REMARK  120  A    between atoms: _293  and  _295
REMARK  121  A    between atoms: _295  and  _296
REMARK  122  A    between atoms: _295  and  _298
REMARK  123  A    between atoms: _298  and  _299
REMARK  124  A    between atoms: _301  and  _303
REMARK  125  A    between atoms: _303  and  _304
REMARK  126  A    between atoms: _303  and  _306
REMARK  127  A    between atoms: _306  and  _307
REMARK  128  A    between atoms: _307  and  _308
REMARK  129  A    between atoms: _308  and  _309
REMARK  130  A    between atoms: _318  and  _320
REMARK  131  A    between atoms: _320  and  _321
REMARK  132  A    between atoms: _320  and  _323
REMARK  133  A    between atoms: _323  and  _324
REMARK  134  A    between atoms: _329  and  _331
REMARK  135  A    between atoms: _331  and  _332
REMARK  136  A    between atoms: _331  and  _334
REMARK  137  A    between atoms: _334  and  _335
REMARK  138  A    between atoms: _337  and  _339
REMARK  139  A    between atoms: _339  and  _340
REMARK  140  A    between atoms: _339  and  _342
REMARK  141  A    between atoms: _345  and  _347
REMARK  142  A    between atoms: _347  and  _348
REMARK  143  A    between atoms: _351  and  _353
REMARK  144  A    between atoms: _353  and  _354
REMARK  145  A    between atoms: _353  and  _356
REMARK  146  A    between atoms: _356  and  _357
REMARK  147  A    between atoms: _362  and  _364
REMARK  148  A    between atoms: _364  and  _365
REMARK  149  A    between atoms: _364  and  _367
REMARK  150  A    between atoms: _369  and  _371
REMARK  151  A    between atoms: _371  and  _372
REMARK  152  A    between atoms: _371  and  _374
REMARK  153  A    between atoms: _374  and  _375
REMARK  154  A    between atoms: _377  and  _379
REMARK  155  A    between atoms: _379  and  _380
REMARK  156  A    between atoms: _379  and  _382
REMARK  157  A    between atoms: _382  and  _383
REMARK  158  A    between atoms: _383  and  _384
REMARK  159  A    between atoms: _386  and  _388
REMARK  160  A    between atoms: _388  and  _389
REMARK  161  A    between atoms: _388  and  _391
REMARK  162  A    between atoms: _391  and  _392
REMARK  163  A    between atoms: _392  and  _393
REMARK  164  A    between atoms: _396  and  _398
REMARK  165  A    between atoms: _398  and  _399
REMARK  166  A    between atoms: _398  and  _401
REMARK  167  A    between atoms: _404  and  _406
REMARK  168  A    between atoms: _406  and  _407
REMARK  169  A    between atoms: _409  and  _411
REMARK  170  A    between atoms: _411  and  _412
REMARK  171  A    between atoms: _414  and  _416
REMARK  172  A    between atoms: _416  and  _417
REMARK  173  A    between atoms: _416  and  _419
REMARK  174  A    between atoms: _419  and  _420
REMARK  175  A    between atoms: _425  and  _426
REMARK  176  A    between atoms: _428  and  _430
REMARK  177  A    between atoms: _430  and  _431
REMARK  178  A    between atoms: _430  and  _433
REMARK  179  A    between atoms: _433  and  _434
REMARK  180  A    between atoms: _437  and  _439
REMARK  181  A    between atoms: _439  and  _440
REMARK  182  A    between atoms: _443  and  _445
REMARK  183  A    between atoms: _445  and  _446
REMARK  184  A    between atoms: _445  and  _448
REMARK  185  A    between atoms: _448  and  _449
REMARK  186  A    between atoms: _452  and  _454
REMARK  187  A    between atoms: _454  and  _455
REMARK  188  A    between atoms: _454  and  _457
REMARK  189  A    between atoms: _457  and  _458
REMARK  190  A    between atoms: _461  and  _463
REMARK  191  A    between atoms: _463  and  _464
REMARK  192  A    between atoms: _463  and  _466
REMARK  193  A    between atoms: _466  and  _467
REMARK  194  A    between atoms: _470  and  _472
REMARK  195  A    between atoms: _472  and  _473
REMARK  196  A    between atoms: _472  and  _475
REMARK  197  A    between atoms: _478  and  _480
REMARK  198  A    between atoms: _480  and  _481
REMARK                            x       y       z     vdW  Elec       q    Type
REMARK                         _______ _______ _______ _____ _____    ______ ____
ROOT
ATOM      1  CA  ILE A   1     -24.323  50.462   1.655  0.00  0.00    +0.133 C 
ENDROOT
BRANCH   1   2
ATOM      2  N   ILE A   1     -22.864  50.634   1.644  0.00  0.00    -0.239 NA
ATOM      3  H   ILE A   1     -22.259  49.790   1.710  0.00  0.00    +0.142 HD
ENDBRANCH   1   2
BRANCH   1   4
ATOM      4  C   ILE A   1     -24.946  51.203   2.842  0.00  0.00    +0.224 C 
ATOM      5  O   ILE A   1     -26.018  51.793   2.747  0.00  0.00    -0.287 OA
ENDBRANCH   1   4
BRANCH   1   6
ATOM      6  CB  ILE A   1     -24.685  48.937   1.696  0.00  0.00    +0.023 C 
ATOM      7  CG2 ILE A   1     -26.172  48.704   2.111  0.00  0.00    +0.002 C 
BRANCH   6   8
ATOM      8  CG1 ILE A   1     -24.314  48.290   0.358  0.00  0.00    +0.002 C 
ATOM      9  CD1 ILE A   1     -24.555  46.797   0.270  0.00  0.00    +0.000 C 
ENDBRANCH   6   8
ENDBRANCH   1   6
TORSDOF 4
REMARK  Name = ../refined-set-2016/2qbu/2qbu_pocket.pdb
REMARK  198 active torsions:
REMARK  status: ('A' for Active; 'I' for Inactive)
REMARK    1  A    between atoms: _1  and  _3
REMARK    2  A    between atoms: _3  and  _4
REMARK    3  A    between atoms: _6  and  _8
REMARK    4  A    between atoms: _8  and  _9
REMARK    5  A    between atoms: _8  and  _11
REMARK    6  A    between atoms: _14  and  _16
REMARK    7  A    between atoms: _16  and  _17
REMARK    8  A    between atoms: _20  and  _21
REMARK    9  A    between atoms: _26  and  _28
REMARK   10  A    between atoms: _28  and  _29
REMARK   11  A    between atoms: _31  and  _33
REMARK   12  A    between atoms: _33  and  _34
REMARK   13  A    between atoms: _33  and  _36
REMARK   14  A    between atoms: _36  and  _37
REMARK   15  A    between atoms: _40  and  _42
REMARK   16  A    between atoms: _42  and  _43
REMARK   17  A    between atoms: _42  and  _45
REMARK   18  A    between atoms: _45  and  _46
REMARK   19  A    between atoms: _49  and  _51
REMARK   20  A    between atoms: _51  and  _52
REMARK   21  A    between atoms: _51  and  _54
REMARK   22  A    between atoms: _54  and  _55
REMARK   23  A    between atoms: _58  and  _60
REMARK   24  A    between atoms: _60  and  _61
REMARK   25  A    between atoms: _60  and  _63
REMARK   26  A    between atoms: _63  and  _64
REMARK   27  A    between atoms: _67  and  _69
REMARK   28  A    between atoms: _69  and  _70
REMARK   29  A    between atoms: _69  and  _72
REMARK   30  A    between atoms: _72  and  _73
REMARK   31  A    between atoms: _76  and  _78
REMARK   32  A    between atoms: _78  and  _79
REMARK   33  A    between atoms: _81  and  _83
REMARK   34  A    between atoms: _83  and  _84
REMARK   35  A    between atoms: _83  and  _86
REMARK   36  A    between atoms: _86  and  _87
REMARK   37  A    between atoms: _91  and  _92
REMARK   38  A    between atoms: _97  and  _99
REMARK   39  A    between atoms: _99  and  _100
REMARK   40  A    between atoms: _99  and  _102
REMARK   41  A    between atoms: _102  and  _103
REMARK   42  A    between atoms: _105  and  _107
REMARK   43  A    between atoms: _107  and  _108
REMARK   44  A    between atoms: _107  and  _110
REMARK   45  A    between atoms: _110  and  _111
REMARK   46  A    between atoms: _114  and  _116
REMARK   47  A    between atoms: _116  and  _117
REMARK   48  A    between atoms: _116  and  _119
REMARK   49  A    between atoms: _119  and  _120
REMARK   50  A    between atoms: _125  and  _126
REMARK   51  A    between atoms: _128  and  _130
REMARK   52  A    between atoms: _130  and  _131
REMARK   53  A    between atoms: _130  and  _133
REMARK   54  A    between atoms: _133  and  _134
REMARK   55  A    between atoms: _136  and  _138
REMARK   56  A    between atoms: _138  and  _139
REMARK   57  A    between atoms: _138  and  _141
REMARK   58  A    between atoms: _141  and  _142
REMARK   59  A    between atoms: _145  and  _147
REMARK   60  A    between atoms: _147  and  _148
REMARK   61  A    between atoms: _147  and  _150
REMARK   62  A    between atoms: _150  and  _151
REMARK   63  A    between atoms: _157  and  _159
REMARK   64  A    between atoms: _159  and  _160
REMARK   65  A    between atoms: _162  and  _164
REMARK   66  A    between atoms: _164  and  _165
REMARK   67  A    between atoms: _164  and  _167
REMARK   68  A    between atoms: _170  and  _172
REMARK   69  A    between atoms: _172  and  _173
REMARK   70  A    between atoms: _172  and  _175
REMARK   71  A    between atoms: _175  and  _176
REMARK   72  A    between atoms: _179  and  _181
REMARK   73  A    between atoms: _181  and  _182
REMARK   74  A    between atoms: _181  and  _184
REMARK   75  A    between atoms: _184  and  _185
REMARK   76  A    between atoms: _187  and  _189
REMARK   77  A    between atoms: _189  and  _190
REMARK   78  A    between atoms: _189  and  _192
REMARK   79  A    between atoms: _192  and  _193
REMARK   80  A    between atoms: _199  and  _201
REMARK   81  A    between atoms: _201  and  _202
REMARK   82  A    between atoms: _201  and  _204
REMARK   83  A    between atoms: _204  and  _205
REMARK   84  A    between atoms: _208  and  _210
REMARK   85  A    between atoms: _210  and  _211
REMARK   86  A    between atoms: _214  and  _216
REMARK   87  A    between atoms: _216  and  _217
REMARK   88  A    between atoms: _216  and  _219
REMARK   89  A    between atoms: _221  and  _223
REMARK   90  A    between atoms: _223  and  _224
REMARK   91  A    between atoms: _223  and  _226
REMARK   92  A    between atoms: _226  and  _227
REMARK   93  A    between atoms: _230  and  _232
REMARK   94  A    between atoms: _232  and  _233
REMARK   95  A    between atoms: _232  and  _235
REMARK   96  A    between atoms: _239  and  _240
REMARK   97  A    between atoms: _245  and  _247
REMARK   98  A    between atoms: _247  and  _248
REMARK   99  A    between atoms: _247  and  _250
REMARK  100  A    between atoms: _253  and  _255
REMARK  101  A    between atoms: _255  and  _256
REMARK  102  A    between atoms: _255  and  _258
REMARK  103  A    between atoms: _258  and  _259
REMARK  104  A    between atoms: _262  and  _264
REMARK  105  A    between atoms: _264  and  _265
REMARK  106  A    between atoms: _264  and  _267
REMARK  107  A    between atoms: _267  and  _268
REMARK  108  A    between atoms: _268  and  _269
REMARK  109  A    between atoms: _271  and  _273
REMARK  110  A    between atoms: _273  and  _274
REMARK  111  A    between atoms: _273  and  _276
REMARK  112  A    between atoms: _276  and  _277
REMARK  113  A    between atoms: _277  and  _278
REMARK  114  A    between atoms: _278  and  _279
REMARK  115  A    between atoms: _279  and  _280
REMARK  116  A    between atoms: _284  and  _286
REMARK  117  A    between atoms: _286  and  _287
REMARK  118  A    between atoms: _286  and  _289
REMARK  119  A    between atoms: _289  and  _290
REMARK  120  A    between atoms: _293  and  _295
REMARK  121  A    between atoms: _295  and  _296
REMARK  122  A    between atoms: _295  and  _298
REMARK  123  A    between atoms: _298  and  _299
REMARK  124  A    between atoms: _301  and  _303
REMARK  125  A    between atoms: _303  and  _304
REMARK  126  A    between atoms: _303  and  _306
REMARK  127  A    between atoms: _306  and  _307
REMARK  128  A    between atoms: _307  and  _308
REMARK  129  A    between atoms: _308  and  _309
REMARK  130  A    between atoms: _318  and  _320
REMARK  131  A    between atoms: _320  and  _321
REMARK  132  A    between atoms: _320  and  _323
REMARK  133  A    between atoms: _323  and  _324
REMARK  134  A    between atoms: _329  and  _331
REMARK  135  A    between atoms: _331  and  _332
REMARK  136  A    between atoms: _331  and  _334
REMARK  137  A    between atoms: _334  and  _335
REMARK  138  A    between atoms: _337  and  _339
REMARK  139  A    between atoms: _339  and  _340
REMARK  140  A    between atoms: _339  and  _342
REMARK  141  A    between atoms: _345  and  _347
REMARK  142  A    between atoms: _347  and  _348
REMARK  143  A    between atoms: _351  and  _353
REMARK  144  A    between atoms: _353  and  _354
REMARK  145  A    between atoms: _353  and  _356
REMARK  146  A    between atoms: _356  and  _357
REMARK  147  A    between atoms: _362  and  _364
REMARK  148  A    between atoms: _364  and  _365
REMARK  149  A    between atoms: _364  and  _367
REMARK  150  A    between atoms: _369  and  _371
REMARK  151  A    between atoms: _371  and  _372
REMARK  152  A    between atoms: _371  and  _374
REMARK  153  A    between atoms: _374  and  _375
REMARK  154  A    between atoms: _377  and  _379
REMARK  155  A    between atoms: _379  and  _380
REMARK  156  A    between atoms: _379  and  _382
REMARK  157  A    between atoms: _382  and  _383
REMARK  158  A    between atoms: _383  and  _384
REMARK  159  A    between atoms: _386  and  _388
REMARK  160  A    between atoms: _388  and  _389
REMARK  161  A    between atoms: _388  and  _391
REMARK  162  A    between atoms: _391  and  _392
REMARK  163  A    between atoms: _392  and  _393
REMARK  164  A    between atoms: _396  and  _398
REMARK  165  A    between atoms: _398  and  _399
REMARK  166  A    between atoms: _398  and  _401
REMARK  167  A    between atoms: _404  and  _406
REMARK  168  A    between atoms: _406  and  _407
REMARK  169  A    between atoms: _409  and  _411
REMARK  170  A    between atoms: _411  and  _412
REMARK  171  A    between atoms: _414  and  _416
REMARK  172  A    between atoms: _416  and  _417
REMARK  173  A    between atoms: _416  and  _419
REMARK  174  A    between atoms: _419  and  _420
REMARK  175  A    between atoms: _425  and  _426
REMARK  176  A    between atoms: _428  and  _430
REMARK  177  A    between atoms: _430  and  _431
REMARK  178  A    between atoms: _430  and  _433
REMARK  179  A    between atoms: _433  and  _434
REMARK  180  A    between atoms: _437  and  _439
REMARK  181  A    between atoms: _439  and  _440
REMARK  182  A    between atoms: _443  and  _445
REMARK  183  A    between atoms: _445  and  _446
REMARK  184  A    between atoms: _445  and  _448
REMARK  185  A    between atoms: _448  and  _449
REMARK  186  A    between atoms: _452  and  _454
REMARK  187  A    between atoms: _454  and  _455
REMARK  188  A    between atoms: _454  and  _457
REMARK  189  A    between atoms: _457  and  _458
REMARK  190  A    between atoms: _461  and  _463
REMARK  191  A    between atoms: _463  and  _464
REMARK  192  A    between atoms: _463  and  _466
REMARK  193  A    between atoms: _466  and  _467
REMARK  194  A    between atoms: _470  and  _472
REMARK  195  A    between atoms: _472  and  _473
REMARK  196  A    between atoms: _472  and  _475
REMARK  197  A    between atoms: _478  and  _480
REMARK  198  A    between atoms: _480  and  _481
REMARK                            x       y       z     vdW  Elec       q    Type
REMARK                         _______ _______ _______ _____ _____    ______ ____
ROOT
ATOM      1  CA  ILE A   7     -25.396  32.778   2.586  0.00  0.00    +0.149 C 
ENDROOT
BRANCH   1   2
ATOM      2  C   ILE A   7     -24.046  33.225   2.031  0.00  0.00    +0.241 C 
ATOM      3  N   TYR A   8     -23.084  32.294   1.979  0.00  0.00    -0.297 N 
ATOM      4  H   TYR A   8     -23.312  31.330   2.296  0.00  0.00    +0.150 HD
ATOM      5  O   ILE A   7     -23.887  34.382   1.656  0.00  0.00    -0.273 OA
BRANCH   3   6
ATOM      6  CA  TYR A   8     -21.718  32.567   1.495  0.00  0.00    +0.153 C 
BRANCH   6   7
ATOM      7  C   TYR A   8     -21.189  33.865   2.065  0.00  0.00    +0.241 C 
ATOM      8  N   SER A   9     -21.386  34.046   3.364  0.00  0.00    -0.295 N 
ATOM      9  H   SER A   9     -21.897  33.331   3.920  0.00  0.00    +0.150 HD
ATOM     10  O   TYR A   8     -20.622  34.699   1.351  0.00  0.00    -0.273 OA
BRANCH   8  11
ATOM     11  CA  SER A   9     -20.890  35.236   4.000  0.00  0.00    +0.178 C 
BRANCH  11  12
ATOM     12  C   SER A   9     -19.624  34.887   4.785  0.00  0.00    +0.243 C 
ATOM     13  N   THR A  10     -18.887  35.906   5.160  0.00  0.00    -0.295 N 
ATOM     14  H   THR A  10     -19.184  36.873   4.918  0.00  0.00    +0.150 HD
ATOM     15  O   SER A   9     -19.301  33.706   5.017  0.00  0.00    -0.273 OA
BRANCH  13  16
ATOM     16  CA  THR A  10     -17.665  35.698   5.906  0.00  0.00    +0.176 C 
BRANCH  16  17
ATOM     17  C   THR A  10     -17.966  35.589   7.419  0.00  0.00    +0.243 C 
ATOM     18  O   THR A  10     -17.131  35.156   8.203  0.00  0.00    -0.273 OA
ATOM     19  N   PHE A  11     -19.188  35.956   7.805  0.00  0.00    -0.298 N 
ATOM     20  H   PHE A  11     -19.871  36.268   7.086  0.00  0.00    +0.150 HD
BRANCH  19  21
ATOM     21  CA  PHE A  11     -19.599  35.933   9.214  0.00  0.00    +0.141 C 
BRANCH  21  22
ATOM     22  C   PHE A  11     -19.239  34.679  10.014  0.00  0.00    +0.227 C 
ATOM     23  O   PHE A  11     -18.835  34.777  11.171  0.00  0.00    -0.286 OA
ENDBRANCH  21  22
BRANCH  21  24
ATOM     24  CB  PHE A  11     -21.090  36.250   9.362  0.00  0.00    +0.054 C 
BRANCH  24  25
ATOM     25  CG  PHE A  11     -21.536  36.347  10.786  0.00  0.00    -0.020 A 
ATOM     26  CD2 PHE A  11     -21.032  37.348  11.619  0.00  0.00    -0.004 A 
ATOM     27  CE2 PHE A  11     -21.427  37.432  12.947  0.00  0.00    -0.000 A 
ATOM     28  CZ  PHE A  11     -22.338  36.519  13.460  0.00  0.00    -0.000 A 
ATOM     29  CE1 PHE A  11     -22.836  35.519  12.656  0.00  0.00    -0.000 A 
ATOM     30  CD1 PHE A  11     -22.423  35.428  11.310  0.00  0.00    -0.004 A 
ENDBRANCH  24  25
ENDBRANCH  21  24
ENDBRANCH  19  21
ENDBRANCH  16  17
BRANCH  16  31
ATOM     31  CB  THR A  10     -16.699  36.835   5.563  0.00  0.00    +0.137 C 
ATOM     32  CG2 THR A  10     -15.895  37.189   6.697  0.00  0.00    +0.034 C 
BRANCH  31  33
ATOM     33  OG1 THR A  10     -15.843  36.405   4.491  0.00  0.00    -0.382 OA
ATOM     34  HG1 THR A  10     -15.213  37.133   4.261  0.00  0.00    +0.210 HD
ENDBRANCH  31  33
ENDBRANCH  16  31
ENDBRANCH  13  16
ENDBRANCH  11  12
BRANCH  11  35
ATOM     35  CB  SER A   9     -22.006  35.883   4.834  0.00  0.00    +0.166 C 
BRANCH  35  36
ATOM     36  OG  SER A   9     -21.639  36.158   6.162  0.00  0.00    -0.380 OA
ATOM     37  H   SER A   9     -22.404  36.572   6.636  0.00  0.00    +0.211 HD
ENDBRANCH  35  36
ENDBRANCH  11  35
ENDBRANCH   8  11
ENDBRANCH   6   7
BRANCH   6  38
ATOM     38  CB  TYR A   8     -21.651  32.589  -0.044  0.00  0.00    +0.055 C 
BRANCH  38  39
ATOM     39  CG  TYR A   8     -22.177  31.336  -0.666  0.00  0.00    -0.020 A 
ATOM     40  CD2 TYR A   8     -21.446  30.157  -0.609  0.00  0.00    -0.001 A 
ATOM     41  CE2 TYR A   8     -21.931  29.000  -1.168  0.00  0.00    +0.036 A 
ATOM     42  CZ  TYR A   8     -23.161  29.007  -1.780  0.00  0.00    +0.134 A 
ATOM     43  CE1 TYR A   8     -23.913  30.157  -1.842  0.00  0.00    +0.036 A 
ATOM     44  CD1 TYR A   8     -23.420  31.314  -1.284  0.00  0.00    -0.001 A 
BRANCH  42  45
ATOM     45  OH  TYR A   8     -23.634  27.863  -2.335  0.00  0.00    -0.506 OA
ATOM     46  HH  TYR A   8     -22.975  27.136  -2.203  0.00  0.00    +0.292 HD
ENDBRANCH  42  45
ENDBRANCH  38  39
ENDBRANCH   6  38
ENDBRANCH   3   6
ENDBRANCH   1   2
BRANCH   1  49
ATOM     47  C   SER A   6     -25.679  32.356   4.985  0.00  0.00    +0.243 C 
ATOM     48  O   SER A   6     -25.484  31.151   4.871  0.00  0.00    -0.273 OA
ATOM     49  N   ILE A   7     -25.552  33.215   3.971  0.00  0.00    -0.297 N 
ATOM     50  H   ILE A   7     -25.565  34.235   4.175  0.00  0.00    +0.150 HD
BRANCH  47  51
ATOM     51  CA  SER A   6     -26.088  32.944   6.331  0.00  0.00    +0.178 C 
BRANCH  51  54
ATOM     52  C   PRO A   5     -25.094  35.128   6.741  0.00  0.00    +0.241 C 
ATOM     53  O   PRO A   5     -24.048  34.616   7.153  0.00  0.00    -0.273 OA
ATOM     54  N   SER A   6     -26.138  34.413   6.327  0.00  0.00    -0.295 N 
ATOM     55  H   SER A   6     -26.997  34.898   5.998  0.00  0.00    +0.150 HD
BRANCH  52  61
ATOM     56  C   ASP A   4     -26.515  37.205   4.741  0.00  0.00    +0.244 C 
ATOM     57  N   PRO A   5     -26.426  37.197   6.089  0.00  0.00    -0.272 N 
ATOM     58  CD  PRO A   5     -27.375  37.695   7.104  0.00  0.00    +0.094 C 
ATOM     59  CG  PRO A   5     -26.796  37.179   8.407  0.00  0.00    +0.024 C 
ATOM     60  CB  PRO A   5     -25.319  37.164   8.173  0.00  0.00    +0.031 C 
ATOM     61  CA  PRO A   5     -25.210  36.653   6.726  0.00  0.00    +0.152 C 
ATOM     62  O   ASP A   4     -25.684  36.635   4.024  0.00  0.00    -0.273 OA
BRANCH  56  63
ATOM     63  CA  ASP A   4     -27.744  37.894   4.090  0.00  0.00    +0.160 C 
BRANCH  63  66
ATOM     64  C   GLY A   3     -27.386  39.897   2.734  0.00  0.00    +0.243 C 
ATOM     65  O   GLY A   3     -27.723  40.650   3.630  0.00  0.00    -0.273 OA
ATOM     66  N   ASP A   4     -27.377  38.574   2.861  0.00  0.00    -0.296 N 
ATOM     67  H   ASP A   4     -27.094  37.999   2.042  0.00  0.00    +0.150 HD
BRANCH  64  68
ATOM     68  CA  GLY A   3     -26.938  40.429   1.376  0.00  0.00    +0.176 C 
BRANCH  68  71
ATOM     69  C   LEU A   2     -24.621  40.973   1.888  0.00  0.00    +0.241 C 
ATOM     70  O   LEU A   2     -24.345  39.802   2.131  0.00  0.00    -0.273 OA
ATOM     71  N   GLY A   3     -25.840  41.374   1.525  0.00  0.00    -0.295 N 
ATOM     72  H   GLY A   3     -26.010  42.384   1.344  0.00  0.00    +0.150 HD
BRANCH  69  73
ATOM     73  CA  LEU A   2     -23.535  42.063   2.014  0.00  0.00    +0.149 C 
BRANCH  73  76
ATOM     74  C   THR A   1     -23.275  41.819   4.431  0.00  0.00    +0.241 C 
ATOM     75  O   THR A   1     -24.472  42.011   4.672  0.00  0.00    -0.274 OA
ATOM     76  N   LEU A   2     -22.745  41.835   3.210  0.00  0.00    -0.297 N 
ATOM     77  H   LEU A   2     -21.722  41.678   3.109  0.00  0.00    +0.150 HD
BRANCH  74  78
ATOM     78  CA  THR A   1     -22.308  41.538   5.553  0.00  0.00    +0.172 C 
BRANCH  78  79
ATOM     79  N   THR A   1     -22.595  42.469   6.625  0.00  0.00    -0.236 NA
ATOM     80  H   THR A   1     -23.586  42.704   6.837  0.00  0.00    +0.142 HD
ENDBRANCH  78  79
BRANCH  78  81
ATOM     81  CB  THR A   1     -22.452  40.038   6.002  0.00  0.00    +0.135 C 
ATOM     82  CG2 THR A   1     -21.713  39.785   7.273  0.00  0.00    +0.034 C 
BRANCH  81  83
ATOM     83  OG1 THR A   1     -23.829  39.712   6.246  0.00  0.00    -0.383 OA
ATOM     84  HG1 THR A   1     -24.352  39.850   5.417  0.00  0.00    +0.210 HD
ENDBRANCH  81  83
ENDBRANCH  78  81
ENDBRANCH  74  78
ENDBRANCH  73  76
BRANCH  73  85
ATOM     85  CB  LEU A   2     -22.611  42.059   0.788  0.00  0.00    +0.029 C 
BRANCH  85  86
ATOM     86  CG  LEU A   2     -23.185  42.152  -0.624  0.00  0.00    +0.002 C 
ATOM     87  CD2 LEU A   2     -23.749  43.511  -0.855  0.00  0.00    +0.000 C 
ATOM     88  CD1 LEU A   2     -22.084  41.916  -1.658  0.00  0.00    +0.000 C 
ENDBRANCH  85  86
ENDBRANCH  73  85
ENDBRANCH  69  73
ENDBRANCH  68  71
ENDBRANCH  64  68
ENDBRANCH  63  66
BRANCH  63  89
ATOM     89  CB  ASP A   4     -28.791  36.833   3.762  0.00  0.00    +0.143 C 
BRANCH  89  90
ATOM     90  CG  ASP A   4     -29.266  36.116   4.992  0.00  0.00    +0.367 C 
ATOM     91  OD2 ASP A   4     -30.196  36.623   5.642  0.00  0.00    -0.246 OA
ATOM     92  OD1 ASP A   4     -28.663  35.081   5.332  0.00  0.00    -0.246 OA
ENDBRANCH  89  90
ENDBRANCH  63  89
ENDBRANCH  56  63
ENDBRANCH  52  61
ENDBRANCH  51  54
BRANCH  51  93
ATOM     93  CB  SER A   6     -27.436  32.351   6.797  0.00  0.00    +0.166 C 
BRANCH  93  94
ATOM     94  OG  SER A   6     -28.436  32.385   5.774  0.00  0.00    -0.380 OA
ATOM     95  H   SER A   6     -28.595  33.323   5.500  0.00  0.00    +0.211 HD
ENDBRANCH  93  94
ENDBRANCH  51  93
ENDBRANCH  47  51
ENDBRANCH   1  49
BRANCH   1  96
ATOM     96  CB  ILE A   7     -26.526  33.380   1.661  0.00  0.00    +0.027 C 
ATOM     97  CG2 ILE A   7     -26.292  33.035   0.189  0.00  0.00    +0.002 C 
BRANCH  96  98
ATOM     98  CG1 ILE A   7     -27.936  32.979   2.124  0.00  0.00    +0.002 C 
ATOM     99  CD1 ILE A   7     -28.311  31.514   1.900  0.00  0.00    +0.000 C 
ENDBRANCH  96  98
ENDBRANCH   1  96
TORSDOF 40
REMARK  Name = ../refined-set-2016/2qbu/2qbu_pocket.pdb
REMARK  198 active torsions:
REMARK  status: ('A' for Active; 'I' for Inactive)
REMARK    1  A    between atoms: _1  and  _3
REMARK    2  A    between atoms: _3  and  _4
REMARK    3  A    between atoms: _6  and  _8
REMARK    4  A    between atoms: _8  and  _9
REMARK    5  A    between atoms: _8  and  _11
REMARK    6  A    between atoms: _14  and  _16
REMARK    7  A    between atoms: _16  and  _17
REMARK    8  A    between atoms: _20  and  _21
REMARK    9  A    between atoms: _26  and  _28
REMARK   10  A    between atoms: _28  and  _29
REMARK   11  A    between atoms: _31  and  _33
REMARK   12  A    between atoms: _33  and  _34
REMARK   13  A    between atoms: _33  and  _36
REMARK   14  A    between atoms: _36  and  _37
REMARK   15  A    between atoms: _40  and  _42
REMARK   16  A    between atoms: _42  and  _43
REMARK   17  A    between atoms: _42  and  _45
REMARK   18  A    between atoms: _45  and  _46
REMARK   19  A    between atoms: _49  and  _51
REMARK   20  A    between atoms: _51  and  _52
REMARK   21  A    between atoms: _51  and  _54
REMARK   22  A    between atoms: _54  and  _55
REMARK   23  A    between atoms: _58  and  _60
REMARK   24  A    between atoms: _60  and  _61
REMARK   25  A    between atoms: _60  and  _63
REMARK   26  A    between atoms: _63  and  _64
REMARK   27  A    between atoms: _67  and  _69
REMARK   28  A    between atoms: _69  and  _70
REMARK   29  A    between atoms: _69  and  _72
REMARK   30  A    between atoms: _72  and  _73
REMARK   31  A    between atoms: _76  and  _78
REMARK   32  A    between atoms: _78  and  _79
REMARK   33  A    between atoms: _81  and  _83
REMARK   34  A    between atoms: _83  and  _84
REMARK   35  A    between atoms: _83  and  _86
REMARK   36  A    between atoms: _86  and  _87
REMARK   37  A    between atoms: _91  and  _92
REMARK   38  A    between atoms: _97  and  _99
REMARK   39  A    between atoms: _99  and  _100
REMARK   40  A    between atoms: _99  and  _102
REMARK   41  A    between atoms: _102  and  _103
REMARK   42  A    between atoms: _105  and  _107
REMARK   43  A    between atoms: _107  and  _108
REMARK   44  A    between atoms: _107  and  _110
REMARK   45  A    between atoms: _110  and  _111
REMARK   46  A    between atoms: _114  and  _116
REMARK   47  A    between atoms: _116  and  _117
REMARK   48  A    between atoms: _116  and  _119
REMARK   49  A    between atoms: _119  and  _120
REMARK   50  A    between atoms: _125  and  _126
REMARK   51  A    between atoms: _128  and  _130
REMARK   52  A    between atoms: _130  and  _131
REMARK   53  A    between atoms: _130  and  _133
REMARK   54  A    between atoms: _133  and  _134
REMARK   55  A    between atoms: _136  and  _138
REMARK   56  A    between atoms: _138  and  _139
REMARK   57  A    between atoms: _138  and  _141
REMARK   58  A    between atoms: _141  and  _142
REMARK   59  A    between atoms: _145  and  _147
REMARK   60  A    between atoms: _147  and  _148
REMARK   61  A    between atoms: _147  and  _150
REMARK   62  A    between atoms: _150  and  _151
REMARK   63  A    between atoms: _157  and  _159
REMARK   64  A    between atoms: _159  and  _160
REMARK   65  A    between atoms: _162  and  _164
REMARK   66  A    between atoms: _164  and  _165
REMARK   67  A    between atoms: _164  and  _167
REMARK   68  A    between atoms: _170  and  _172
REMARK   69  A    between atoms: _172  and  _173
REMARK   70  A    between atoms: _172  and  _175
REMARK   71  A    between atoms: _175  and  _176
REMARK   72  A    between atoms: _179  and  _181
REMARK   73  A    between atoms: _181  and  _182
REMARK   74  A    between atoms: _181  and  _184
REMARK   75  A    between atoms: _184  and  _185
REMARK   76  A    between atoms: _187  and  _189
REMARK   77  A    between atoms: _189  and  _190
REMARK   78  A    between atoms: _189  and  _192
REMARK   79  A    between atoms: _192  and  _193
REMARK   80  A    between atoms: _199  and  _201
REMARK   81  A    between atoms: _201  and  _202
REMARK   82  A    between atoms: _201  and  _204
REMARK   83  A    between atoms: _204  and  _205
REMARK   84  A    between atoms: _208  and  _210
REMARK   85  A    between atoms: _210  and  _211
REMARK   86  A    between atoms: _214  and  _216
REMARK   87  A    between atoms: _216  and  _217
REMARK   88  A    between atoms: _216  and  _219
REMARK   89  A    between atoms: _221  and  _223
REMARK   90  A    between atoms: _223  and  _224
REMARK   91  A    between atoms: _223  and  _226
REMARK   92  A    between atoms: _226  and  _227
REMARK   93  A    between atoms: _230  and  _232
REMARK   94  A    between atoms: _232  and  _233
REMARK   95  A    between atoms: _232  and  _235
REMARK   96  A    between atoms: _239  and  _240
REMARK   97  A    between atoms: _245  and  _247
REMARK   98  A    between atoms: _247  and  _248
REMARK   99  A    between atoms: _247  and  _250
REMARK  100  A    between atoms: _253  and  _255
REMARK  101  A    between atoms: _255  and  _256
REMARK  102  A    between atoms: _255  and  _258
REMARK  103  A    between atoms: _258  and  _259
REMARK  104  A    between atoms: _262  and  _264
REMARK  105  A    between atoms: _264  and  _265
REMARK  106  A    between atoms: _264  and  _267
REMARK  107  A    between atoms: _267  and  _268
REMARK  108  A    between atoms: _268  and  _269
REMARK  109  A    between atoms: _271  and  _273
REMARK  110  A    between atoms: _273  and  _274
REMARK  111  A    between atoms: _273  and  _276
REMARK  112  A    between atoms: _276  and  _277
REMARK  113  A    between atoms: _277  and  _278
REMARK  114  A    between atoms: _278  and  _279
REMARK  115  A    between atoms: _279  and  _280
REMARK  116  A    between atoms: _284  and  _286
REMARK  117  A    between atoms: _286  and  _287
REMARK  118  A    between atoms: _286  and  _289
REMARK  119  A    between atoms: _289  and  _290
REMARK  120  A    between atoms: _293  and  _295
REMARK  121  A    between atoms: _295  and  _296
REMARK  122  A    between atoms: _295  and  _298
REMARK  123  A    between atoms: _298  and  _299
REMARK  124  A    between atoms: _301  and  _303
REMARK  125  A    between atoms: _303  and  _304
REMARK  126  A    between atoms: _303  and  _306
REMARK  127  A    between atoms: _306  and  _307
REMARK  128  A    between atoms: _307  and  _308
REMARK  129  A    between atoms: _308  and  _309
REMARK  130  A    between atoms: _318  and  _320
REMARK  131  A    between atoms: _320  and  _321
REMARK  132  A    between atoms: _320  and  _323
REMARK  133  A    between atoms: _323  and  _324
REMARK  134  A    between atoms: _329  and  _331
REMARK  135  A    between atoms: _331  and  _332
REMARK  136  A    between atoms: _331  and  _334
REMARK  137  A    between atoms: _334  and  _335
REMARK  138  A    between atoms: _337  and  _339
REMARK  139  A    between atoms: _339  and  _340
REMARK  140  A    between atoms: _339  and  _342
REMARK  141  A    between atoms: _345  and  _347
REMARK  142  A    between atoms: _347  and  _348
REMARK  143  A    between atoms: _351  and  _353
REMARK  144  A    between atoms: _353  and  _354
REMARK  145  A    between atoms: _353  and  _356
REMARK  146  A    between atoms: _356  and  _357
REMARK  147  A    between atoms: _362  and  _364
REMARK  148  A    between atoms: _364  and  _365
REMARK  149  A    between atoms: _364  and  _367
REMARK  150  A    between atoms: _369  and  _371
REMARK  151  A    between atoms: _371  and  _372
REMARK  152  A    between atoms: _371  and  _374
REMARK  153  A    between atoms: _374  and  _375
REMARK  154  A    between atoms: _377  and  _379
REMARK  155  A    between atoms: _379  and  _380
REMARK  156  A    between atoms: _379  and  _382
REMARK  157  A    between atoms: _382  and  _383
REMARK  158  A    between atoms: _383  and  _384
REMARK  159  A    between atoms: _386  and  _388
REMARK  160  A    between atoms: _388  and  _389
REMARK  161  A    between atoms: _388  and  _391
REMARK  162  A    between atoms: _391  and  _392
REMARK  163  A    between atoms: _392  and  _393
REMARK  164  A    between atoms: _396  and  _398
REMARK  165  A    between atoms: _398  and  _399
REMARK  166  A    between atoms: _398  and  _401
REMARK  167  A    between atoms: _404  and  _406
REMARK  168  A    between atoms: _406  and  _407
REMARK  169  A    between atoms: _409  and  _411
REMARK  170  A    between atoms: _411  and  _412
REMARK  171  A    between atoms: _414  and  _416
REMARK  172  A    between atoms: _416  and  _417
REMARK  173  A    between atoms: _416  and  _419
REMARK  174  A    between atoms: _419  and  _420
REMARK  175  A    between atoms: _425  and  _426
REMARK  176  A    between atoms: _428  and  _430
REMARK  177  A    between atoms: _430  and  _431
REMARK  178  A    between atoms: _430  and  _433
REMARK  179  A    between atoms: _433  and  _434
REMARK  180  A    between atoms: _437  and  _439
REMARK  181  A    between atoms: _439  and  _440
REMARK  182  A    between atoms: _443  and  _445
REMARK  183  A    between atoms: _445  and  _446
REMARK  184  A    between atoms: _445  and  _448
REMARK  185  A    between atoms: _448  and  _449
REMARK  186  A    between atoms: _452  and  _454
REMARK  187  A    between atoms: _454  and  _455
REMARK  188  A    between atoms: _454  and  _457
REMARK  189  A    between atoms: _457  and  _458
REMARK  190  A    between atoms: _461  and  _463
REMARK  191  A    between atoms: _463  and  _464
REMARK  192  A    between atoms: _463  and  _466
REMARK  193  A    between atoms: _466  and  _467
REMARK  194  A    between atoms: _470  and  _472
REMARK  195  A    between atoms: _472  and  _473
REMARK  196  A    between atoms: _472  and  _475
REMARK  197  A    between atoms: _478  and  _480
REMARK  198  A    between atoms: _480  and  _481
REMARK                            x       y       z     vdW  Elec       q    Type
REMARK                         _______ _______ _______ _____ _____    ______ ____
ROOT
ATOM      1  C   SER A   4     -29.264  37.941  -4.682  0.00  0.00    +0.243 C 
ATOM      2  N   PHE A   5     -29.421  36.612  -4.535  0.00  0.00    -0.297 N 
ATOM      3  H   PHE A   5     -29.101  36.136  -3.668  0.00  0.00    +0.150 HD
ATOM      4  O   SER A   4     -29.695  38.556  -5.657  0.00  0.00    -0.273 OA
ENDROOT
BRANCH   2   5
ATOM      5  CA  PHE A   5     -30.050  35.846  -5.616  0.00  0.00    +0.153 C 
BRANCH   5   6
ATOM      6  C   PHE A   5     -31.551  36.126  -5.816  0.00  0.00    +0.241 C 
ATOM      7  N   THR A   6     -32.263  36.381  -4.721  0.00  0.00    -0.295 N 
ATOM      8  H   THR A   6     -31.811  36.338  -3.786  0.00  0.00    +0.150 HD
ATOM      9  O   PHE A   5     -32.051  36.110  -6.961  0.00  0.00    -0.273 OA
BRANCH   7  10
ATOM     10  CA  THR A   6     -33.697  36.726  -4.833  0.00  0.00    +0.176 C 
BRANCH  10  11
ATOM     11  C   THR A   6     -33.857  38.195  -5.235  0.00  0.00    +0.243 C 
ATOM     12  N   ALA A   7     -32.916  39.046  -4.826  0.00  0.00    -0.297 N 
ATOM     13  H   ALA A   7     -32.187  38.730  -4.155  0.00  0.00    +0.150 HD
ATOM     14  O   THR A   6     -34.839  38.550  -5.865  0.00  0.00    -0.273 OA
BRANCH  12  15
ATOM     15  CA  ALA A   7     -32.907  40.424  -5.320  0.00  0.00    +0.149 C 
ATOM     16  CB  ALA A   7     -31.897  41.282  -4.573  0.00  0.00    +0.031 C 
BRANCH  15  17
ATOM     17  C   ALA A   7     -32.650  40.434  -6.832  0.00  0.00    +0.241 C 
ATOM     18  N   CYS A   8     -31.755  39.566  -7.319  0.00  0.00    -0.297 N 
ATOM     19  H   CYS A   8     -31.202  38.984  -6.657  0.00  0.00    +0.150 HD
ATOM     20  O   ALA A   7     -33.291  41.189  -7.549  0.00  0.00    -0.273 OA
BRANCH  18  21
ATOM     21  CA  CYS A   8     -31.531  39.412  -8.771  0.00  0.00    +0.149 C 
BRANCH  21  22
ATOM     22  CB  CYS A   8     -30.351  38.484  -9.082  0.00  0.00    +0.096 C 
ATOM     23  SG  CYS A   8     -28.788  39.216  -8.651  0.00  0.00    -0.080 S 
ENDBRANCH  21  22
BRANCH  21  24
ATOM     24  C   CYS A   8     -32.766  38.951  -9.528  0.00  0.00    +0.228 C 
ATOM     25  O   CYS A   8     -33.073  39.486 -10.610  0.00  0.00    -0.286 OA
ENDBRANCH  21  24
ENDBRANCH  18  21
ENDBRANCH  15  17
ENDBRANCH  12  15
ENDBRANCH  10  11
BRANCH  10  26
ATOM     26  CB  THR A   6     -34.475  36.507  -3.520  0.00  0.00    +0.137 C 
ATOM     27  CG2 THR A   6     -34.308  35.054  -2.966  0.00  0.00    +0.034 C 
BRANCH  26  28
ATOM     28  OG1 THR A   6     -34.094  37.505  -2.562  0.00  0.00    -0.382 OA
ATOM     29  HG1 THR A   6     -34.595  37.361  -1.720  0.00  0.00    +0.210 HD
ENDBRANCH  26  28
ENDBRANCH  10  26
ENDBRANCH   7  10
ENDBRANCH   5   6
BRANCH   5  30
ATOM     30  CB  PHE A   5     -29.712  34.327  -5.620  0.00  0.00    +0.055 C 
BRANCH  30  31
ATOM     31  CG  PHE A   5     -30.196  33.544  -4.404  0.00  0.00    -0.020 A 
ATOM     32  CD2 PHE A   5     -29.329  33.263  -3.345  0.00  0.00    -0.004 A 
ATOM     33  CE2 PHE A   5     -29.767  32.516  -2.214  0.00  0.00    -0.000 A 
ATOM     34  CZ  PHE A   5     -31.044  32.032  -2.185  0.00  0.00    -0.000 A 
ATOM     35  CE1 PHE A   5     -31.910  32.289  -3.236  0.00  0.00    -0.000 A 
ATOM     36  CD1 PHE A   5     -31.482  33.032  -4.351  0.00  0.00    -0.004 A 
ENDBRANCH  30  31
ENDBRANCH   5  30
ENDBRANCH   2   5
BRANCH   1  37
ATOM     37  CA  SER A   4     -28.529  38.719  -3.613  0.00  0.00    +0.178 C 
BRANCH  37  39
ATOM     38  C   THR A   3     -29.914  38.217  -1.710  0.00  0.00    +0.243 C 
ATOM     39  N   SER A   4     -28.711  38.227  -2.258  0.00  0.00    -0.295 N 
ATOM     40  H   SER A   4     -27.892  37.882  -1.718  0.00  0.00    +0.150 HD
ATOM     41  O   THR A   3     -30.931  38.507  -2.345  0.00  0.00    -0.273 OA
BRANCH  38  42
ATOM     42  CA  THR A   3     -29.964  37.831  -0.229  0.00  0.00    +0.176 C 
BRANCH  42  45
ATOM     43  C   VAL A   2     -31.016  39.726   0.846  0.00  0.00    +0.241 C 
ATOM     44  O   VAL A   2     -30.005  40.429   0.751  0.00  0.00    -0.273 OA
ATOM     45  N   THR A   3     -31.083  38.467   0.420  0.00  0.00    -0.295 N 
ATOM     46  H   THR A   3     -31.963  37.930   0.558  0.00  0.00    +0.150 HD
BRANCH  43  47
ATOM     47  CA  VAL A   2     -32.274  40.270   1.488  0.00  0.00    +0.148 C 
BRANCH  47  50
ATOM     48  C   GLY A   1     -31.699  39.683   3.778  0.00  0.00    +0.240 C 
ATOM     49  O   GLY A   1     -31.832  38.473   3.598  0.00  0.00    -0.274 OA
ATOM     50  N   VAL A   2     -31.989  40.607   2.868  0.00  0.00    -0.297 N 
ATOM     51  H   VAL A   2     -32.012  41.606   3.156  0.00  0.00    +0.150 HD
BRANCH  48  52
ATOM     52  CA  GLY A   1     -31.146  40.214   5.062  0.00  0.00    +0.169 C 
BRANCH  52  53
ATOM     53  N   GLY A   1     -31.033  39.173   6.049  0.00  0.00    -0.236 NA
ATOM     54  H   GLY A   1     -30.669  38.239   5.770  0.00  0.00    +0.142 HD
ENDBRANCH  52  53
ENDBRANCH  48  52
ENDBRANCH  47  50
BRANCH  47  55
ATOM     55  CB  VAL A   2     -32.787  41.493   0.685  0.00  0.00    +0.027 C 
ATOM     56  CG2 VAL A   2     -34.093  41.961   1.276  0.00  0.00    +0.002 C 
ATOM     57  CG1 VAL A   2     -32.967  41.117  -0.796  0.00  0.00    +0.002 C 
ENDBRANCH  47  55
ENDBRANCH  43  47
ENDBRANCH  42  45
BRANCH  42  58
ATOM     58  CB  THR A   3     -29.981  36.288  -0.031  0.00  0.00    +0.137 C 
ATOM     59  CG2 THR A   3     -31.071  35.629  -0.861  0.00  0.00    +0.034 C 
BRANCH  58  60
ATOM     60  OG1 THR A   3     -28.698  35.743  -0.373  0.00  0.00    -0.382 OA
ATOM     61  HG1 THR A   3     -28.005  36.142   0.211  0.00  0.00    +0.210 HD
ENDBRANCH  58  60
ENDBRANCH  42  58
ENDBRANCH  38  42
ENDBRANCH  37  39
BRANCH  37  62
ATOM     62  CB  SER A   4     -27.040  38.885  -3.954  0.00  0.00    +0.166 C 
BRANCH  62  63
ATOM     63  OG  SER A   4     -26.446  37.617  -4.156  0.00  0.00    -0.380 OA
ATOM     64  H   SER A   4     -26.903  37.155  -4.903  0.00  0.00    +0.211 HD
ENDBRANCH  62  63
ENDBRANCH  37  62
ENDBRANCH   1  37
TORSDOF 26
REMARK  Name = ../refined-set-2016/2qbu/2qbu_pocket.pdb
REMARK  198 active torsions:
REMARK  status: ('A' for Active; 'I' for Inactive)
REMARK    1  A    between atoms: _1  and  _3
REMARK    2  A    between atoms: _3  and  _4
REMARK    3  A    between atoms: _6  and  _8
REMARK    4  A    between atoms: _8  and  _9
REMARK    5  A    between atoms: _8  and  _11
REMARK    6  A    between atoms: _14  and  _16
REMARK    7  A    between atoms: _16  and  _17
REMARK    8  A    between atoms: _20  and  _21
REMARK    9  A    between atoms: _26  and  _28
REMARK   10  A    between atoms: _28  and  _29
REMARK   11  A    between atoms: _31  and  _33
REMARK   12  A    between atoms: _33  and  _34
REMARK   13  A    between atoms: _33  and  _36
REMARK   14  A    between atoms: _36  and  _37
REMARK   15  A    between atoms: _40  and  _42
REMARK   16  A    between atoms: _42  and  _43
REMARK   17  A    between atoms: _42  and  _45
REMARK   18  A    between atoms: _45  and  _46
REMARK   19  A    between atoms: _49  and  _51
REMARK   20  A    between atoms: _51  and  _52
REMARK   21  A    between atoms: _51  and  _54
REMARK   22  A    between atoms: _54  and  _55
REMARK   23  A    between atoms: _58  and  _60
REMARK   24  A    between atoms: _60  and  _61
REMARK   25  A    between atoms: _60  and  _63
REMARK   26  A    between atoms: _63  and  _64
REMARK   27  A    between atoms: _67  and  _69
REMARK   28  A    between atoms: _69  and  _70
REMARK   29  A    between atoms: _69  and  _72
REMARK   30  A    between atoms: _72  and  _73
REMARK   31  A    between atoms: _76  and  _78
REMARK   32  A    between atoms: _78  and  _79
REMARK   33  A    between atoms: _81  and  _83
REMARK   34  A    between atoms: _83  and  _84
REMARK   35  A    between atoms: _83  and  _86
REMARK   36  A    between atoms: _86  and  _87
REMARK   37  A    between atoms: _91  and  _92
REMARK   38  A    between atoms: _97  and  _99
REMARK   39  A    between atoms: _99  and  _100
REMARK   40  A    between atoms: _99  and  _102
REMARK   41  A    between atoms: _102  and  _103
REMARK   42  A    between atoms: _105  and  _107
REMARK   43  A    between atoms: _107  and  _108
REMARK   44  A    between atoms: _107  and  _110
REMARK   45  A    between atoms: _110  and  _111
REMARK   46  A    between atoms: _114  and  _116
REMARK   47  A    between atoms: _116  and  _117
REMARK   48  A    between atoms: _116  and  _119
REMARK   49  A    between atoms: _119  and  _120
REMARK   50  A    between atoms: _125  and  _126
REMARK   51  A    between atoms: _128  and  _130
REMARK   52  A    between atoms: _130  and  _131
REMARK   53  A    between atoms: _130  and  _133
REMARK   54  A    between atoms: _133  and  _134
REMARK   55  A    between atoms: _136  and  _138
REMARK   56  A    between atoms: _138  and  _139
REMARK   57  A    between atoms: _138  and  _141
REMARK   58  A    between atoms: _141  and  _142
REMARK   59  A    between atoms: _145  and  _147
REMARK   60  A    between atoms: _147  and  _148
REMARK   61  A    between atoms: _147  and  _150
REMARK   62  A    between atoms: _150  and  _151
REMARK   63  A    between atoms: _157  and  _159
REMARK   64  A    between atoms: _159  and  _160
REMARK   65  A    between atoms: _162  and  _164
REMARK   66  A    between atoms: _164  and  _165
REMARK   67  A    between atoms: _164  and  _167
REMARK   68  A    between atoms: _170  and  _172
REMARK   69  A    between atoms: _172  and  _173
REMARK   70  A    between atoms: _172  and  _175
REMARK   71  A    between atoms: _175  and  _176
REMARK   72  A    between atoms: _179  and  _181
REMARK   73  A    between atoms: _181  and  _182
REMARK   74  A    between atoms: _181  and  _184
REMARK   75  A    between atoms: _184  and  _185
REMARK   76  A    between atoms: _187  and  _189
REMARK   77  A    between atoms: _189  and  _190
REMARK   78  A    between atoms: _189  and  _192
REMARK   79  A    between atoms: _192  and  _193
REMARK   80  A    between atoms: _199  and  _201
REMARK   81  A    between atoms: _201  and  _202
REMARK   82  A    between atoms: _201  and  _204
REMARK   83  A    between atoms: _204  and  _205
REMARK   84  A    between atoms: _208  and  _210
REMARK   85  A    between atoms: _210  and  _211
REMARK   86  A    between atoms: _214  and  _216
REMARK   87  A    between atoms: _216  and  _217
REMARK   88  A    between atoms: _216  and  _219
REMARK   89  A    between atoms: _221  and  _223
REMARK   90  A    between atoms: _223  and  _224
REMARK   91  A    between atoms: _223  and  _226
REMARK   92  A    between atoms: _226  and  _227
REMARK   93  A    between atoms: _230  and  _232
REMARK   94  A    between atoms: _232  and  _233
REMARK   95  A    between atoms: _232  and  _235
REMARK   96  A    between atoms: _239  and  _240
REMARK   97  A    between atoms: _245  and  _247
REMARK   98  A    between atoms: _247  and  _248
REMARK   99  A    between atoms: _247  and  _250
REMARK  100  A    between atoms: _253  and  _255
REMARK  101  A    between atoms: _255  and  _256
REMARK  102  A    between atoms: _255  and  _258
REMARK  103  A    between atoms: _258  and  _259
REMARK  104  A    between atoms: _262  and  _264
REMARK  105  A    between atoms: _264  and  _265
REMARK  106  A    between atoms: _264  and  _267
REMARK  107  A    between atoms: _267  and  _268
REMARK  108  A    between atoms: _268  and  _269
REMARK  109  A    between atoms: _271  and  _273
REMARK  110  A    between atoms: _273  and  _274
REMARK  111  A    between atoms: _273  and  _276
REMARK  112  A    between atoms: _276  and  _277
REMARK  113  A    between atoms: _277  and  _278
REMARK  114  A    between atoms: _278  and  _279
REMARK  115  A    between atoms: _279  and  _280
REMARK  116  A    between atoms: _284  and  _286
REMARK  117  A    between atoms: _286  and  _287
REMARK  118  A    between atoms: _286  and  _289
REMARK  119  A    between atoms: _289  and  _290
REMARK  120  A    between atoms: _293  and  _295
REMARK  121  A    between atoms: _295  and  _296
REMARK  122  A    between atoms: _295  and  _298
REMARK  123  A    between atoms: _298  and  _299
REMARK  124  A    between atoms: _301  and  _303
REMARK  125  A    between atoms: _303  and  _304
REMARK  126  A    between atoms: _303  and  _306
REMARK  127  A    between atoms: _306  and  _307
REMARK  128  A    between atoms: _307  and  _308
REMARK  129  A    between atoms: _308  and  _309
REMARK  130  A    between atoms: _318  and  _320
REMARK  131  A    between atoms: _320  and  _321
REMARK  132  A    between atoms: _320  and  _323
REMARK  133  A    between atoms: _323  and  _324
REMARK  134  A    between atoms: _329  and  _331
REMARK  135  A    between atoms: _331  and  _332
REMARK  136  A    between atoms: _331  and  _334
REMARK  137  A    between atoms: _334  and  _335
REMARK  138  A    between atoms: _337  and  _339
REMARK  139  A    between atoms: _339  and  _340
REMARK  140  A    between atoms: _339  and  _342
REMARK  141  A    between atoms: _345  and  _347
REMARK  142  A    between atoms: _347  and  _348
REMARK  143  A    between atoms: _351  and  _353
REMARK  144  A    between atoms: _353  and  _354
REMARK  145  A    between atoms: _353  and  _356
REMARK  146  A    between atoms: _356  and  _357
REMARK  147  A    between atoms: _362  and  _364
REMARK  148  A    between atoms: _364  and  _365
REMARK  149  A    between atoms: _364  and  _367
REMARK  150  A    between atoms: _369  and  _371
REMARK  151  A    between atoms: _371  and  _372
REMARK  152  A    between atoms: _371  and  _374
REMARK  153  A    between atoms: _374  and  _375
REMARK  154  A    between atoms: _377  and  _379
REMARK  155  A    between atoms: _379  and  _380
REMARK  156  A    between atoms: _379  and  _382
REMARK  157  A    between atoms: _382  and  _383
REMARK  158  A    between atoms: _383  and  _384
REMARK  159  A    between atoms: _386  and  _388
REMARK  160  A    between atoms: _388  and  _389
REMARK  161  A    between atoms: _388  and  _391
REMARK  162  A    between atoms: _391  and  _392
REMARK  163  A    between atoms: _392  and  _393
REMARK  164  A    between atoms: _396  and  _398
REMARK  165  A    between atoms: _398  and  _399
REMARK  166  A    between atoms: _398  and  _401
REMARK  167  A    between atoms: _404  and  _406
REMARK  168  A    between atoms: _406  and  _407
REMARK  169  A    between atoms: _409  and  _411
REMARK  170  A    between atoms: _411  and  _412
REMARK  171  A    between atoms: _414  and  _416
REMARK  172  A    between atoms: _416  and  _417
REMARK  173  A    between atoms: _416  and  _419
REMARK  174  A    between atoms: _419  and  _420
REMARK  175  A    between atoms: _425  and  _426
REMARK  176  A    between atoms: _428  and  _430
REMARK  177  A    between atoms: _430  and  _431
REMARK  178  A    between atoms: _430  and  _433
REMARK  179  A    between atoms: _433  and  _434
REMARK  180  A    between atoms: _437  and  _439
REMARK  181  A    between atoms: _439  and  _440
REMARK  182  A    between atoms: _443  and  _445
REMARK  183  A    between atoms: _445  and  _446
REMARK  184  A    between atoms: _445  and  _448
REMARK  185  A    between atoms: _448  and  _449
REMARK  186  A    between atoms: _452  and  _454
REMARK  187  A    between atoms: _454  and  _455
REMARK  188  A    between atoms: _454  and  _457
REMARK  189  A    between atoms: _457  and  _458
REMARK  190  A    between atoms: _461  and  _463
REMARK  191  A    between atoms: _463  and  _464
REMARK  192  A    between atoms: _463  and  _466
REMARK  193  A    between atoms: _466  and  _467
REMARK  194  A    between atoms: _470  and  _472
REMARK  195  A    between atoms: _472  and  _473
REMARK  196  A    between atoms: _472  and  _475
REMARK  197  A    between atoms: _478  and  _480
REMARK  198  A    between atoms: _480  and  _481
REMARK                            x       y       z     vdW  Elec       q    Type
REMARK                         _______ _______ _______ _____ _____    ______ ____
ROOT
ATOM      1  CA  THR A   1     -34.941  42.977 -10.711  0.00  0.00    +0.160 C 
ENDROOT
BRANCH   1   2
ATOM      2  N   THR A   1     -35.298  41.983  -9.695  0.00  0.00    -0.237 NA
ATOM      3  H   THR A   1     -34.554  41.582  -9.089  0.00  0.00    +0.142 HD
ENDBRANCH   1   2
BRANCH   1   4
ATOM      4  CB  THR A   1     -33.489  43.560 -10.559  0.00  0.00    +0.134 C 
ATOM      5  CG2 THR A   1     -33.177  43.895  -9.152  0.00  0.00    +0.034 C 
BRANCH   4   6
ATOM      6  OG1 THR A   1     -32.513  42.608 -10.973  0.00  0.00    -0.383 OA
ATOM      7  HG1 THR A   1     -32.590  41.794 -10.415  0.00  0.00    +0.210 HD
ENDBRANCH   4   6
ENDBRANCH   1   4
BRANCH   1   8
ATOM      8  C   THR A   1     -35.161  42.426 -12.124  0.00  0.00    +0.227 C 
ATOM      9  O   THR A   1     -35.543  43.165 -13.029  0.00  0.00    -0.287 OA
ENDBRANCH   1   8
TORSDOF 4
REMARK  Name = ../refined-set-2016/2qbu/2qbu_pocket.pdb
REMARK  198 active torsions:
REMARK  status: ('A' for Active; 'I' for Inactive)
REMARK    1  A    between atoms: _1  and  _3
REMARK    2  A    between atoms: _3  and  _4
REMARK    3  A    between atoms: _6  and  _8
REMARK    4  A    between atoms: _8  and  _9
REMARK    5  A    between atoms: _8  and  _11
REMARK    6  A    between atoms: _14  and  _16
REMARK    7  A    between atoms: _16  and  _17
REMARK    8  A    between atoms: _20  and  _21
REMARK    9  A    between atoms: _26  and  _28
REMARK   10  A    between atoms: _28  and  _29
REMARK   11  A    between atoms: _31  and  _33
REMARK   12  A    between atoms: _33  and  _34
REMARK   13  A    between atoms: _33  and  _36
REMARK   14  A    between atoms: _36  and  _37
REMARK   15  A    between atoms: _40  and  _42
REMARK   16  A    between atoms: _42  and  _43
REMARK   17  A    between atoms: _42  and  _45
REMARK   18  A    between atoms: _45  and  _46
REMARK   19  A    between atoms: _49  and  _51
REMARK   20  A    between atoms: _51  and  _52
REMARK   21  A    between atoms: _51  and  _54
REMARK   22  A    between atoms: _54  and  _55
REMARK   23  A    between atoms: _58  and  _60
REMARK   24  A    between atoms: _60  and  _61
REMARK   25  A    between atoms: _60  and  _63
REMARK   26  A    between atoms: _63  and  _64
REMARK   27  A    between atoms: _67  and  _69
REMARK   28  A    between atoms: _69  and  _70
REMARK   29  A    between atoms: _69  and  _72
REMARK   30  A    between atoms: _72  and  _73
REMARK   31  A    between atoms: _76  and  _78
REMARK   32  A    between atoms: _78  and  _79
REMARK   33  A    between atoms: _81  and  _83
REMARK   34  A    between atoms: _83  and  _84
REMARK   35  A    between atoms: _83  and  _86
REMARK   36  A    between atoms: _86  and  _87
REMARK   37  A    between atoms: _91  and  _92
REMARK   38  A    between atoms: _97  and  _99
REMARK   39  A    between atoms: _99  and  _100
REMARK   40  A    between atoms: _99  and  _102
REMARK   41  A    between atoms: _102  and  _103
REMARK   42  A    between atoms: _105  and  _107
REMARK   43  A    between atoms: _107  and  _108
REMARK   44  A    between atoms: _107  and  _110
REMARK   45  A    between atoms: _110  and  _111
REMARK   46  A    between atoms: _114  and  _116
REMARK   47  A    between atoms: _116  and  _117
REMARK   48  A    between atoms: _116  and  _119
REMARK   49  A    between atoms: _119  and  _120
REMARK   50  A    between atoms: _125  and  _126
REMARK   51  A    between atoms: _128  and  _130
REMARK   52  A    between atoms: _130  and  _131
REMARK   53  A    between atoms: _130  and  _133
REMARK   54  A    between atoms: _133  and  _134
REMARK   55  A    between atoms: _136  and  _138
REMARK   56  A    between atoms: _138  and  _139
REMARK   57  A    between atoms: _138  and  _141
REMARK   58  A    between atoms: _141  and  _142
REMARK   59  A    between atoms: _145  and  _147
REMARK   60  A    between atoms: _147  and  _148
REMARK   61  A    between atoms: _147  and  _150
REMARK   62  A    between atoms: _150  and  _151
REMARK   63  A    between atoms: _157  and  _159
REMARK   64  A    between atoms: _159  and  _160
REMARK   65  A    between atoms: _162  and  _164
REMARK   66  A    between atoms: _164  and  _165
REMARK   67  A    between atoms: _164  and  _167
REMARK   68  A    between atoms: _170  and  _172
REMARK   69  A    between atoms: _172  and  _173
REMARK   70  A    between atoms: _172  and  _175
REMARK   71  A    between atoms: _175  and  _176
REMARK   72  A    between atoms: _179  and  _181
REMARK   73  A    between atoms: _181  and  _182
REMARK   74  A    between atoms: _181  and  _184
REMARK   75  A    between atoms: _184  and  _185
REMARK   76  A    between atoms: _187  and  _189
REMARK   77  A    between atoms: _189  and  _190
REMARK   78  A    between atoms: _189  and  _192
REMARK   79  A    between atoms: _192  and  _193
REMARK   80  A    between atoms: _199  and  _201
REMARK   81  A    between atoms: _201  and  _202
REMARK   82  A    between atoms: _201  and  _204
REMARK   83  A    between atoms: _204  and  _205
REMARK   84  A    between atoms: _208  and  _210
REMARK   85  A    between atoms: _210  and  _211
REMARK   86  A    between atoms: _214  and  _216
REMARK   87  A    between atoms: _216  and  _217
REMARK   88  A    between atoms: _216  and  _219
REMARK   89  A    between atoms: _221  and  _223
REMARK   90  A    between atoms: _223  and  _224
REMARK   91  A    between atoms: _223  and  _226
REMARK   92  A    between atoms: _226  and  _227
REMARK   93  A    between atoms: _230  and  _232
REMARK   94  A    between atoms: _232  and  _233
REMARK   95  A    between atoms: _232  and  _235
REMARK   96  A    between atoms: _239  and  _240
REMARK   97  A    between atoms: _245  and  _247
REMARK   98  A    between atoms: _247  and  _248
REMARK   99  A    between atoms: _247  and  _250
REMARK  100  A    between atoms: _253  and  _255
REMARK  101  A    between atoms: _255  and  _256
REMARK  102  A    between atoms: _255  and  _258
REMARK  103  A    between atoms: _258  and  _259
REMARK  104  A    between atoms: _262  and  _264
REMARK  105  A    between atoms: _264  and  _265
REMARK  106  A    between atoms: _264  and  _267
REMARK  107  A    between atoms: _267  and  _268
REMARK  108  A    between atoms: _268  and  _269
REMARK  109  A    between atoms: _271  and  _273
REMARK  110  A    between atoms: _273  and  _274
REMARK  111  A    between atoms: _273  and  _276
REMARK  112  A    between atoms: _276  and  _277
REMARK  113  A    between atoms: _277  and  _278
REMARK  114  A    between atoms: _278  and  _279
REMARK  115  A    between atoms: _279  and  _280
REMARK  116  A    between atoms: _284  and  _286
REMARK  117  A    between atoms: _286  and  _287
REMARK  118  A    between atoms: _286  and  _289
REMARK  119  A    between atoms: _289  and  _290
REMARK  120  A    between atoms: _293  and  _295
REMARK  121  A    between atoms: _295  and  _296
REMARK  122  A    between atoms: _295  and  _298
REMARK  123  A    between atoms: _298  and  _299
REMARK  124  A    between atoms: _301  and  _303
REMARK  125  A    between atoms: _303  and  _304
REMARK  126  A    between atoms: _303  and  _306
REMARK  127  A    between atoms: _306  and  _307
REMARK  128  A    between atoms: _307  and  _308
REMARK  129  A    between atoms: _308  and  _309
REMARK  130  A    between atoms: _318  and  _320
REMARK  131  A    between atoms: _320  and  _321
REMARK  132  A    between atoms: _320  and  _323
REMARK  133  A    between atoms: _323  and  _324
REMARK  134  A    between atoms: _329  and  _331
REMARK  135  A    between atoms: _331  and  _332
REMARK  136  A    between atoms: _331  and  _334
REMARK  137  A    between atoms: _334  and  _335
REMARK  138  A    between atoms: _337  and  _339
REMARK  139  A    between atoms: _339  and  _340
REMARK  140  A    between atoms: _339  and  _342
REMARK  141  A    between atoms: _345  and  _347
REMARK  142  A    between atoms: _347  and  _348
REMARK  143  A    between atoms: _351  and  _353
REMARK  144  A    between atoms: _353  and  _354
REMARK  145  A    between atoms: _353  and  _356
REMARK  146  A    between atoms: _356  and  _357
REMARK  147  A    between atoms: _362  and  _364
REMARK  148  A    between atoms: _364  and  _365
REMARK  149  A    between atoms: _364  and  _367
REMARK  150  A    between atoms: _369  and  _371
REMARK  151  A    between atoms: _371  and  _372
REMARK  152  A    between atoms: _371  and  _374
REMARK  153  A    between atoms: _374  and  _375
REMARK  154  A    between atoms: _377  and  _379
REMARK  155  A    between atoms: _379  and  _380
REMARK  156  A    between atoms: _379  and  _382
REMARK  157  A    between atoms: _382  and  _383
REMARK  158  A    between atoms: _383  and  _384
REMARK  159  A    between atoms: _386  and  _388
REMARK  160  A    between atoms: _388  and  _389
REMARK  161  A    between atoms: _388  and  _391
REMARK  162  A    between atoms: _391  and  _392
REMARK  163  A    between atoms: _392  and  _393
REMARK  164  A    between atoms: _396  and  _398
REMARK  165  A    between atoms: _398  and  _399
REMARK  166  A    between atoms: _398  and  _401
REMARK  167  A    between atoms: _404  and  _406
REMARK  168  A    between atoms: _406  and  _407
REMARK  169  A    between atoms: _409  and  _411
REMARK  170  A    between atoms: _411  and  _412
REMARK  171  A    between atoms: _414  and  _416
REMARK  172  A    between atoms: _416  and  _417
REMARK  173  A    between atoms: _416  and  _419
REMARK  174  A    between atoms: _419  and  _420
REMARK  175  A    between atoms: _425  and  _426
REMARK  176  A    between atoms: _428  and  _430
REMARK  177  A    between atoms: _430  and  _431
REMARK  178  A    between atoms: _430  and  _433
REMARK  179  A    between atoms: _433  and  _434
REMARK  180  A    between atoms: _437  and  _439
REMARK  181  A    between atoms: _439  and  _440
REMARK  182  A    between atoms: _443  and  _445
REMARK  183  A    between atoms: _445  and  _446
REMARK  184  A    between atoms: _445  and  _448
REMARK  185  A    between atoms: _448  and  _449
REMARK  186  A    between atoms: _452  and  _454
REMARK  187  A    between atoms: _454  and  _455
REMARK  188  A    between atoms: _454  and  _457
REMARK  189  A    between atoms: _457  and  _458
REMARK  190  A    between atoms: _461  and  _463
REMARK  191  A    between atoms: _463  and  _464
REMARK  192  A    between atoms: _463  and  _466
REMARK  193  A    between atoms: _466  and  _467
REMARK  194  A    between atoms: _470  and  _472
REMARK  195  A    between atoms: _472  and  _473
REMARK  196  A    between atoms: _472  and  _475
REMARK  197  A    between atoms: _478  and  _480
REMARK  198  A    between atoms: _480  and  _481
REMARK                            x       y       z     vdW  Elec       q    Type
REMARK                         _______ _______ _______ _____ _____    ______ ____
ROOT
ATOM      1  C   VAL A   1     -23.069  28.075  -6.626  0.00  0.00    +0.241 C 
ATOM      2  N   PRO A   2     -21.955  27.993  -5.875  0.00  0.00    -0.273 N 
ATOM      3  CD  PRO A   2     -21.628  26.881  -4.962  0.00  0.00    +0.094 C 
ATOM      4  CG  PRO A   2     -20.319  27.305  -4.355  0.00  0.00    +0.024 C 
ATOM      5  CB  PRO A   2     -20.191  28.739  -4.548  0.00  0.00    +0.030 C 
ATOM      6  CA  PRO A   2     -20.930  29.021  -5.855  0.00  0.00    +0.140 C 
ATOM      7  O   VAL A   1     -23.320  29.045  -7.353  0.00  0.00    -0.273 OA
ENDROOT
BRANCH   6   8
ATOM      8  C   PRO A   2     -19.951  28.942  -7.036  0.00  0.00    +0.227 C 
ATOM      9  O   PRO A   2     -19.302  29.921  -7.356  0.00  0.00    -0.286 OA
ENDBRANCH   6   8
BRANCH   1  10
ATOM     10  CA  VAL A   1     -24.033  26.879  -6.571  0.00  0.00    +0.145 C 
BRANCH  10  11
ATOM     11  CB  VAL A   1     -23.746  25.909  -7.770  0.00  0.00    +0.025 C 
ATOM     12  CG2 VAL A   1     -24.646  24.670  -7.707  0.00  0.00    +0.002 C 
ATOM     13  CG1 VAL A   1     -23.859  26.615  -9.116  0.00  0.00    +0.002 C 
ENDBRANCH  10  11
BRANCH  10  14
ATOM     14  N   VAL A   1     -25.446  27.276  -6.473  0.00  0.00    -0.238 NA
ATOM     15  H   VAL A   1     -25.851  27.901  -7.199  0.00  0.00    +0.142 HD
ENDBRANCH  10  14
ENDBRANCH   1  10
TORSDOF 4
REMARK  Name = ../refined-set-2016/2qbu/2qbu_pocket.pdb
REMARK  198 active torsions:
REMARK  status: ('A' for Active; 'I' for Inactive)
REMARK    1  A    between atoms: _1  and  _3
REMARK    2  A    between atoms: _3  and  _4
REMARK    3  A    between atoms: _6  and  _8
REMARK    4  A    between atoms: _8  and  _9
REMARK    5  A    between atoms: _8  and  _11
REMARK    6  A    between atoms: _14  and  _16
REMARK    7  A    between atoms: _16  and  _17
REMARK    8  A    between atoms: _20  and  _21
REMARK    9  A    between atoms: _26  and  _28
REMARK   10  A    between atoms: _28  and  _29
REMARK   11  A    between atoms: _31  and  _33
REMARK   12  A    between atoms: _33  and  _34
REMARK   13  A    between atoms: _33  and  _36
REMARK   14  A    between atoms: _36  and  _37
REMARK   15  A    between atoms: _40  and  _42
REMARK   16  A    between atoms: _42  and  _43
REMARK   17  A    between atoms: _42  and  _45
REMARK   18  A    between atoms: _45  and  _46
REMARK   19  A    between atoms: _49  and  _51
REMARK   20  A    between atoms: _51  and  _52
REMARK   21  A    between atoms: _51  and  _54
REMARK   22  A    between atoms: _54  and  _55
REMARK   23  A    between atoms: _58  and  _60
REMARK   24  A    between atoms: _60  and  _61
REMARK   25  A    between atoms: _60  and  _63
REMARK   26  A    between atoms: _63  and  _64
REMARK   27  A    between atoms: _67  and  _69
REMARK   28  A    between atoms: _69  and  _70
REMARK   29  A    between atoms: _69  and  _72
REMARK   30  A    between atoms: _72  and  _73
REMARK   31  A    between atoms: _76  and  _78
REMARK   32  A    between atoms: _78  and  _79
REMARK   33  A    between atoms: _81  and  _83
REMARK   34  A    between atoms: _83  and  _84
REMARK   35  A    between atoms: _83  and  _86
REMARK   36  A    between atoms: _86  and  _87
REMARK   37  A    between atoms: _91  and  _92
REMARK   38  A    between atoms: _97  and  _99
REMARK   39  A    between atoms: _99  and  _100
REMARK   40  A    between atoms: _99  and  _102
REMARK   41  A    between atoms: _102  and  _103
REMARK   42  A    between atoms: _105  and  _107
REMARK   43  A    between atoms: _107  and  _108
REMARK   44  A    between atoms: _107  and  _110
REMARK   45  A    between atoms: _110  and  _111
REMARK   46  A    between atoms: _114  and  _116
REMARK   47  A    between atoms: _116  and  _117
REMARK   48  A    between atoms: _116  and  _119
REMARK   49  A    between atoms: _119  and  _120
REMARK   50  A    between atoms: _125  and  _126
REMARK   51  A    between atoms: _128  and  _130
REMARK   52  A    between atoms: _130  and  _131
REMARK   53  A    between atoms: _130  and  _133
REMARK   54  A    between atoms: _133  and  _134
REMARK   55  A    between atoms: _136  and  _138
REMARK   56  A    between atoms: _138  and  _139
REMARK   57  A    between atoms: _138  and  _141
REMARK   58  A    between atoms: _141  and  _142
REMARK   59  A    between atoms: _145  and  _147
REMARK   60  A    between atoms: _147  and  _148
REMARK   61  A    between atoms: _147  and  _150
REMARK   62  A    between atoms: _150  and  _151
REMARK   63  A    between atoms: _157  and  _159
REMARK   64  A    between atoms: _159  and  _160
REMARK   65  A    between atoms: _162  and  _164
REMARK   66  A    between atoms: _164  and  _165
REMARK   67  A    between atoms: _164  and  _167
REMARK   68  A    between atoms: _170  and  _172
REMARK   69  A    between atoms: _172  and  _173
REMARK   70  A    between atoms: _172  and  _175
REMARK   71  A    between atoms: _175  and  _176
REMARK   72  A    between atoms: _179  and  _181
REMARK   73  A    between atoms: _181  and  _182
REMARK   74  A    between atoms: _181  and  _184
REMARK   75  A    between atoms: _184  and  _185
REMARK   76  A    between atoms: _187  and  _189
REMARK   77  A    between atoms: _189  and  _190
REMARK   78  A    between atoms: _189  and  _192
REMARK   79  A    between atoms: _192  and  _193
REMARK   80  A    between atoms: _199  and  _201
REMARK   81  A    between atoms: _201  and  _202
REMARK   82  A    between atoms: _201  and  _204
REMARK   83  A    between atoms: _204  and  _205
REMARK   84  A    between atoms: _208  and  _210
REMARK   85  A    between atoms: _210  and  _211
REMARK   86  A    between atoms: _214  and  _216
REMARK   87  A    between atoms: _216  and  _217
REMARK   88  A    between atoms: _216  and  _219
REMARK   89  A    between atoms: _221  and  _223
REMARK   90  A    between atoms: _223  and  _224
REMARK   91  A    between atoms: _223  and  _226
REMARK   92  A    between atoms: _226  and  _227
REMARK   93  A    between atoms: _230  and  _232
REMARK   94  A    between atoms: _232  and  _233
REMARK   95  A    between atoms: _232  and  _235
REMARK   96  A    between atoms: _239  and  _240
REMARK   97  A    between atoms: _245  and  _247
REMARK   98  A    between atoms: _247  and  _248
REMARK   99  A    between atoms: _247  and  _250
REMARK  100  A    between atoms: _253  and  _255
REMARK  101  A    between atoms: _255  and  _256
REMARK  102  A    between atoms: _255  and  _258
REMARK  103  A    between atoms: _258  and  _259
REMARK  104  A    between atoms: _262  and  _264
REMARK  105  A    between atoms: _264  and  _265
REMARK  106  A    between atoms: _264  and  _267
REMARK  107  A    between atoms: _267  and  _268
REMARK  108  A    between atoms: _268  and  _269
REMARK  109  A    between atoms: _271  and  _273
REMARK  110  A    between atoms: _273  and  _274
REMARK  111  A    between atoms: _273  and  _276
REMARK  112  A    between atoms: _276  and  _277
REMARK  113  A    between atoms: _277  and  _278
REMARK  114  A    between atoms: _278  and  _279
REMARK  115  A    between atoms: _279  and  _280
REMARK  116  A    between atoms: _284  and  _286
REMARK  117  A    between atoms: _286  and  _287
REMARK  118  A    between atoms: _286  and  _289
REMARK  119  A    between atoms: _289  and  _290
REMARK  120  A    between atoms: _293  and  _295
REMARK  121  A    between atoms: _295  and  _296
REMARK  122  A    between atoms: _295  and  _298
REMARK  123  A    between atoms: _298  and  _299
REMARK  124  A    between atoms: _301  and  _303
REMARK  125  A    between atoms: _303  and  _304
REMARK  126  A    between atoms: _303  and  _306
REMARK  127  A    between atoms: _306  and  _307
REMARK  128  A    between atoms: _307  and  _308
REMARK  129  A    between atoms: _308  and  _309
REMARK  130  A    between atoms: _318  and  _320
REMARK  131  A    between atoms: _320  and  _321
REMARK  132  A    between atoms: _320  and  _323
REMARK  133  A    between atoms: _323  and  _324
REMARK  134  A    between atoms: _329  and  _331
REMARK  135  A    between atoms: _331  and  _332
REMARK  136  A    between atoms: _331  and  _334
REMARK  137  A    between atoms: _334  and  _335
REMARK  138  A    between atoms: _337  and  _339
REMARK  139  A    between atoms: _339  and  _340
REMARK  140  A    between atoms: _339  and  _342
REMARK  141  A    between atoms: _345  and  _347
REMARK  142  A    between atoms: _347  and  _348
REMARK  143  A    between atoms: _351  and  _353
REMARK  144  A    between atoms: _353  and  _354
REMARK  145  A    between atoms: _353  and  _356
REMARK  146  A    between atoms: _356  and  _357
REMARK  147  A    between atoms: _362  and  _364
REMARK  148  A    between atoms: _364  and  _365
REMARK  149  A    between atoms: _364  and  _367
REMARK  150  A    between atoms: _369  and  _371
REMARK  151  A    between atoms: _371  and  _372
REMARK  152  A    between atoms: _371  and  _374
REMARK  153  A    between atoms: _374  and  _375
REMARK  154  A    between atoms: _377  and  _379
REMARK  155  A    between atoms: _379  and  _380
REMARK  156  A    between atoms: _379  and  _382
REMARK  157  A    between atoms: _382  and  _383
REMARK  158  A    between atoms: _383  and  _384
REMARK  159  A    between atoms: _386  and  _388
REMARK  160  A    between atoms: _388  and  _389
REMARK  161  A    between atoms: _388  and  _391
REMARK  162  A    between atoms: _391  and  _392
REMARK  163  A    between atoms: _392  and  _393
REMARK  164  A    between atoms: _396  and  _398
REMARK  165  A    between atoms: _398  and  _399
REMARK  166  A    between atoms: _398  and  _401
REMARK  167  A    between atoms: _404  and  _406
REMARK  168  A    between atoms: _406  and  _407
REMARK  169  A    between atoms: _409  and  _411
REMARK  170  A    between atoms: _411  and  _412
REMARK  171  A    between atoms: _414  and  _416
REMARK  172  A    between atoms: _416  and  _417
REMARK  173  A    between atoms: _416  and  _419
REMARK  174  A    between atoms: _419  and  _420
REMARK  175  A    between atoms: _425  and  _426
REMARK  176  A    between atoms: _428  and  _430
REMARK  177  A    between atoms: _430  and  _431
REMARK  178  A    between atoms: _430  and  _433
REMARK  179  A    between atoms: _433  and  _434
REMARK  180  A    between atoms: _437  and  _439
REMARK  181  A    between atoms: _439  and  _440
REMARK  182  A    between atoms: _443  and  _445
REMARK  183  A    between atoms: _445  and  _446
REMARK  184  A    between atoms: _445  and  _448
REMARK  185  A    between atoms: _448  and  _449
REMARK  186  A    between atoms: _452  and  _454
REMARK  187  A    between atoms: _454  and  _455
REMARK  188  A    between atoms: _454  and  _457
REMARK  189  A    between atoms: _457  and  _458
REMARK  190  A    between atoms: _461  and  _463
REMARK  191  A    between atoms: _463  and  _464
REMARK  192  A    between atoms: _463  and  _466
REMARK  193  A    between atoms: _466  and  _467
REMARK  194  A    between atoms: _470  and  _472
REMARK  195  A    between atoms: _472  and  _473
REMARK  196  A    between atoms: _472  and  _475
REMARK  197  A    between atoms: _478  and  _480
REMARK  198  A    between atoms: _480  and  _481
REMARK                            x       y       z     vdW  Elec       q    Type
REMARK                         _______ _______ _______ _____ _____    ______ ____
ROOT
ATOM      1  CA  THR A   5     -21.014  34.166 -12.420  0.00  0.00    +0.176 C 
ENDROOT
BRANCH   1   4
ATOM      2  C   LYS A   4     -19.575  34.161 -10.445  0.00  0.00    +0.241 C 
ATOM      3  O   LYS A   4     -18.688  33.494 -10.990  0.00  0.00    -0.273 OA
ATOM      4  N   THR A   5     -20.604  34.677 -11.110  0.00  0.00    -0.295 N 
ATOM      5  H   THR A   5     -21.133  35.466 -10.688  0.00  0.00    +0.150 HD
BRANCH   2   6
ATOM      6  CA  LYS A   4     -19.531  34.443  -8.934  0.00  0.00    +0.149 C 
BRANCH   6   8
ATOM      7  C   MET A   3     -21.549  33.046  -8.652  0.00  0.00    +0.241 C 
ATOM      8  N   LYS A   4     -20.801  34.078  -8.255  0.00  0.00    -0.297 N 
ATOM      9  H   LYS A   4     -21.118  34.646  -7.443  0.00  0.00    +0.150 HD
ATOM     10  O   MET A   3     -21.188  32.266  -9.536  0.00  0.00    -0.273 OA
BRANCH   7  11
ATOM     11  CA  MET A   3     -22.903  32.851  -7.969  0.00  0.00    +0.149 C 
BRANCH  11  13
ATOM     12  C   ILE A   2     -24.249  31.749  -9.706  0.00  0.00    +0.241 C 
ATOM     13  N   MET A   3     -23.560  31.681  -8.563  0.00  0.00    -0.297 N 
ATOM     14  H   MET A   3     -23.487  30.765  -8.076  0.00  0.00    +0.150 HD
ATOM     15  O   ILE A   2     -24.425  32.795 -10.329  0.00  0.00    -0.273 OA
BRANCH  12  16
ATOM     16  CA  ILE A   2     -24.866  30.449 -10.201  0.00  0.00    +0.148 C 
BRANCH  16  19
ATOM     17  C   VAL A   1     -26.992  29.868  -9.178  0.00  0.00    +0.238 C 
ATOM     18  O   VAL A   1     -26.457  29.022  -8.459  0.00  0.00    -0.274 OA
ATOM     19  N   ILE A   2     -26.320  30.566 -10.086  0.00  0.00    -0.297 N 
ATOM     20  H   ILE A   2     -26.835  31.205 -10.725  0.00  0.00    +0.150 HD
BRANCH  17  21
ATOM     21  CA  VAL A   1     -28.494  30.157  -9.065  0.00  0.00    +0.145 C 
BRANCH  21  22
ATOM     22  CB  VAL A   1     -28.787  30.786  -7.672  0.00  0.00    +0.025 C 
ATOM     23  CG2 VAL A   1     -27.903  32.003  -7.427  0.00  0.00    +0.002 C 
ATOM     24  CG1 VAL A   1     -30.279  31.133  -7.519  0.00  0.00    +0.002 C 
ENDBRANCH  21  22
BRANCH  21  25
ATOM     25  N   VAL A   1     -29.203  28.902  -9.249  0.00  0.00    -0.238 NA
ATOM     26  H   VAL A   1     -29.210  28.223  -8.462  0.00  0.00    +0.142 HD
ENDBRANCH  21  25
ENDBRANCH  17  21
ENDBRANCH  16  19
BRANCH  16  27
ATOM     27  CB  ILE A   2     -24.426  30.088 -11.641  0.00  0.00    +0.027 C 
ATOM     28  CG2 ILE A   2     -22.900  29.976 -11.743  0.00  0.00    +0.002 C 
BRANCH  27  29
ATOM     29  CG1 ILE A   2     -25.078  28.775 -12.084  0.00  0.00    +0.002 C 
ATOM     30  CD1 ILE A   2     -25.173  28.601 -13.590  0.00  0.00    +0.000 C 
ENDBRANCH  27  29
ENDBRANCH  16  27
ENDBRANCH  12  16
ENDBRANCH  11  13
BRANCH  11  31
ATOM     31  CB  MET A   3     -22.720  32.704  -6.447  0.00  0.00    +0.041 C 
BRANCH  31  32
ATOM     32  CG  MET A   3     -23.857  32.001  -5.670  0.00  0.00    +0.060 C 
BRANCH  32  33
ATOM     33  SD  MET A   3     -25.262  33.023  -5.135  0.00  0.00    -0.139 S 
ATOM     34  CE  MET A   3     -24.647  33.875  -3.678  0.00  0.00    +0.069 C 
ENDBRANCH  32  33
ENDBRANCH  31  32
ENDBRANCH  11  31
ENDBRANCH   7  11
ENDBRANCH   6   8
BRANCH   6  35
ATOM     35  CB  LYS A   4     -18.341  33.711  -8.299  0.00  0.00    +0.029 C 
BRANCH  35  36
ATOM     36  CG  LYS A   4     -17.955  34.146  -6.881  0.00  0.00    +0.000 C 
BRANCH  36  37
ATOM     37  CD  LYS A   4     -18.444  33.166  -5.802  0.00  0.00    -0.024 C 
BRANCH  37  38
ATOM     38  CE  LYS A   4     -19.452  33.821  -4.865  0.00  0.00    -0.086 C 
BRANCH  38  39
ATOM     39  NZ  LYS A   4     -19.910  32.949  -3.734  0.00  0.00    +0.380 N 
ATOM     40  HZ1 LYS A   4     -20.592  33.472  -3.149  0.00  0.00    -0.089 HD
ATOM     41  HZ2 LYS A   4     -19.091  32.677  -3.154  0.00  0.00    -0.089 HD
ATOM     42  HZ3 LYS A   4     -20.364  32.096  -4.118  0.00  0.00    -0.089 HD
ENDBRANCH  38  39
ENDBRANCH  37  38
ENDBRANCH  36  37
ENDBRANCH  35  36
ENDBRANCH   6  35
ENDBRANCH   2   6
ENDBRANCH   1   4
BRANCH   1  43
ATOM     43  C   THR A   5     -20.187  34.627 -13.625  0.00  0.00    +0.243 C 
ATOM     44  N   SER A   6     -19.358  35.647 -13.408  0.00  0.00    -0.295 N 
ATOM     45  H   SER A   6     -19.296  36.045 -12.449  0.00  0.00    +0.150 HD
ATOM     46  O   THR A   5     -20.302  34.064 -14.725  0.00  0.00    -0.273 OA
BRANCH  44  47
ATOM     47  CA  SER A   6     -18.532  36.229 -14.463  0.00  0.00    +0.178 C 
BRANCH  47  48
ATOM     48  C   SER A   6     -17.397  35.278 -14.863  0.00  0.00    +0.243 C 
ATOM     49  N   ARG A   7     -17.146  34.280 -14.019  0.00  0.00    -0.297 N 
ATOM     50  H   ARG A   7     -17.768  34.143 -13.197  0.00  0.00    +0.150 HD
ATOM     51  O   SER A   6     -16.779  35.432 -15.922  0.00  0.00    -0.273 OA
BRANCH  49  52
ATOM     52  CA  ARG A   7     -16.024  33.376 -14.216  0.00  0.00    +0.149 C 
BRANCH  52  53
ATOM     53  C   ARG A   7     -16.467  31.948 -14.574  0.00  0.00    +0.241 C 
ATOM     54  N   HIS A   8     -17.641  31.540 -14.077  0.00  0.00    -0.298 N 
ATOM     55  H   HIS A   8     -18.244  32.236 -13.594  0.00  0.00    +0.150 HD
ATOM     56  O   ARG A   7     -15.762  31.247 -15.307  0.00  0.00    -0.273 OA
BRANCH  54  57
ATOM     57  CA  HIS A   8     -18.122  30.139 -14.184  0.00  0.00    +0.143 C 
BRANCH  57  58
ATOM     58  C   HIS A   8     -19.117  29.854 -15.318  0.00  0.00    +0.227 C 
ATOM     59  O   HIS A   8     -19.322  28.688 -15.689  0.00  0.00    -0.286 OA
ENDBRANCH  57  58
BRANCH  57  60
ATOM     60  CB  HIS A   8     -18.730  29.675 -12.854  0.00  0.00    +0.075 C 
BRANCH  60  61
ATOM     61  CG  HIS A   8     -17.854  29.942 -11.672  0.00  0.00    +0.082 A 
ATOM     62  ND1 HIS A   8     -18.218  30.799 -10.655  0.00  0.00    -0.227 NA
ATOM     63  CE1 HIS A   8     -17.251  30.845  -9.756  0.00  0.00    +0.199 A 
ATOM     64  NE2 HIS A   8     -16.266  30.062 -10.160  0.00  0.00    -0.221 NA
ATOM     65  CD2 HIS A   8     -16.618  29.485 -11.357  0.00  0.00    +0.115 A 
ENDBRANCH  60  61
ENDBRANCH  57  60
ENDBRANCH  54  57
ENDBRANCH  52  53
BRANCH  52  66
ATOM     66  CB  ARG A   7     -15.136  33.391 -12.964  0.00  0.00    +0.033 C 
BRANCH  66  67
ATOM     67  CG  ARG A   7     -13.637  33.588 -13.245  0.00  0.00    +0.045 C 
BRANCH  67  68
ATOM     68  CD  ARG A   7     -12.911  32.248 -13.303  0.00  0.00    +0.174 C 
BRANCH  68  69
ATOM     69  NE  ARG A   7     -11.655  32.215 -14.067  0.00  0.00    -0.265 N 
ATOM     70  HE  ARG A   7     -10.985  31.456 -13.829  0.00  0.00    +0.259 HD
ATOM     71  CZ  ARG A   7     -11.285  33.058 -15.035  0.00  0.00    +0.342 C 
ATOM     72  NH2 ARG A   7     -12.055  34.073 -15.422  0.00  0.00    -0.292 N 
ATOM     73 HH21 ARG A   7     -12.977  34.229 -14.967  0.00  0.00    +0.255 HD
ATOM     74 HH22 ARG A   7     -11.734  34.710 -16.179  0.00  0.00    +0.255 HD
ATOM     75  NH1 ARG A   7     -10.114  32.875 -15.632  0.00  0.00    -0.292 N 
ATOM     76 HH11 ARG A   7      -9.501  32.085 -15.344  0.00  0.00    +0.255 HD
ATOM     77 HH12 ARG A   7      -9.809  33.521 -16.388  0.00  0.00    +0.255 HD
ENDBRANCH  68  69
ENDBRANCH  67  68
ENDBRANCH  66  67
ENDBRANCH  52  66
ENDBRANCH  49  52
ENDBRANCH  47  48
BRANCH  47  78
ATOM     78  CB  SER A   6     -17.976  37.582 -13.999  0.00  0.00    +0.166 C 
BRANCH  78  79
ATOM     79  OG  SER A   6     -17.246  38.238 -15.031  0.00  0.00    -0.380 OA
ATOM     80  H   SER A   6     -16.485  37.668 -15.309  0.00  0.00    +0.211 HD
ENDBRANCH  78  79
ENDBRANCH  47  78
ENDBRANCH  44  47
ENDBRANCH   1  43
BRANCH   1  81
ATOM     81  CB  THR A   5     -22.530  34.389 -12.671  0.00  0.00    +0.137 C 
ATOM     82  CG2 THR A   5     -22.807  35.592 -13.593  0.00  0.00    +0.034 C 
BRANCH  81  83
ATOM     83  OG1 THR A   5     -23.088  33.207 -13.249  0.00  0.00    -0.382 OA
ATOM     84  HG1 THR A   5     -24.055  33.345 -13.411  0.00  0.00    +0.210 HD
ENDBRANCH  81  83
ENDBRANCH   1  81
TORSDOF 37
REMARK  Name = ../refined-set-2016/2qbu/2qbu_pocket.pdb
REMARK  198 active torsions:
REMARK  status: ('A' for Active; 'I' for Inactive)
REMARK    1  A    between atoms: _1  and  _3
REMARK    2  A    between atoms: _3  and  _4
REMARK    3  A    between atoms: _6  and  _8
REMARK    4  A    between atoms: _8  and  _9
REMARK    5  A    between atoms: _8  and  _11
REMARK    6  A    between atoms: _14  and  _16
REMARK    7  A    between atoms: _16  and  _17
REMARK    8  A    between atoms: _20  and  _21
REMARK    9  A    between atoms: _26  and  _28
REMARK   10  A    between atoms: _28  and  _29
REMARK   11  A    between atoms: _31  and  _33
REMARK   12  A    between atoms: _33  and  _34
REMARK   13  A    between atoms: _33  and  _36
REMARK   14  A    between atoms: _36  and  _37
REMARK   15  A    between atoms: _40  and  _42
REMARK   16  A    between atoms: _42  and  _43
REMARK   17  A    between atoms: _42  and  _45
REMARK   18  A    between atoms: _45  and  _46
REMARK   19  A    between atoms: _49  and  _51
REMARK   20  A    between atoms: _51  and  _52
REMARK   21  A    between atoms: _51  and  _54
REMARK   22  A    between atoms: _54  and  _55
REMARK   23  A    between atoms: _58  and  _60
REMARK   24  A    between atoms: _60  and  _61
REMARK   25  A    between atoms: _60  and  _63
REMARK   26  A    between atoms: _63  and  _64
REMARK   27  A    between atoms: _67  and  _69
REMARK   28  A    between atoms: _69  and  _70
REMARK   29  A    between atoms: _69  and  _72
REMARK   30  A    between atoms: _72  and  _73
REMARK   31  A    between atoms: _76  and  _78
REMARK   32  A    between atoms: _78  and  _79
REMARK   33  A    between atoms: _81  and  _83
REMARK   34  A    between atoms: _83  and  _84
REMARK   35  A    between atoms: _83  and  _86
REMARK   36  A    between atoms: _86  and  _87
REMARK   37  A    between atoms: _91  and  _92
REMARK   38  A    between atoms: _97  and  _99
REMARK   39  A    between atoms: _99  and  _100
REMARK   40  A    between atoms: _99  and  _102
REMARK   41  A    between atoms: _102  and  _103
REMARK   42  A    between atoms: _105  and  _107
REMARK   43  A    between atoms: _107  and  _108
REMARK   44  A    between atoms: _107  and  _110
REMARK   45  A    between atoms: _110  and  _111
REMARK   46  A    between atoms: _114  and  _116
REMARK   47  A    between atoms: _116  and  _117
REMARK   48  A    between atoms: _116  and  _119
REMARK   49  A    between atoms: _119  and  _120
REMARK   50  A    between atoms: _125  and  _126
REMARK   51  A    between atoms: _128  and  _130
REMARK   52  A    between atoms: _130  and  _131
REMARK   53  A    between atoms: _130  and  _133
REMARK   54  A    between atoms: _133  and  _134
REMARK   55  A    between atoms: _136  and  _138
REMARK   56  A    between atoms: _138  and  _139
REMARK   57  A    between atoms: _138  and  _141
REMARK   58  A    between atoms: _141  and  _142
REMARK   59  A    between atoms: _145  and  _147
REMARK   60  A    between atoms: _147  and  _148
REMARK   61  A    between atoms: _147  and  _150
REMARK   62  A    between atoms: _150  and  _151
REMARK   63  A    between atoms: _157  and  _159
REMARK   64  A    between atoms: _159  and  _160
REMARK   65  A    between atoms: _162  and  _164
REMARK   66  A    between atoms: _164  and  _165
REMARK   67  A    between atoms: _164  and  _167
REMARK   68  A    between atoms: _170  and  _172
REMARK   69  A    between atoms: _172  and  _173
REMARK   70  A    between atoms: _172  and  _175
REMARK   71  A    between atoms: _175  and  _176
REMARK   72  A    between atoms: _179  and  _181
REMARK   73  A    between atoms: _181  and  _182
REMARK   74  A    between atoms: _181  and  _184
REMARK   75  A    between atoms: _184  and  _185
REMARK   76  A    between atoms: _187  and  _189
REMARK   77  A    between atoms: _189  and  _190
REMARK   78  A    between atoms: _189  and  _192
REMARK   79  A    between atoms: _192  and  _193
REMARK   80  A    between atoms: _199  and  _201
REMARK   81  A    between atoms: _201  and  _202
REMARK   82  A    between atoms: _201  and  _204
REMARK   83  A    between atoms: _204  and  _205
REMARK   84  A    between atoms: _208  and  _210
REMARK   85  A    between atoms: _210  and  _211
REMARK   86  A    between atoms: _214  and  _216
REMARK   87  A    between atoms: _216  and  _217
REMARK   88  A    between atoms: _216  and  _219
REMARK   89  A    between atoms: _221  and  _223
REMARK   90  A    between atoms: _223  and  _224
REMARK   91  A    between atoms: _223  and  _226
REMARK   92  A    between atoms: _226  and  _227
REMARK   93  A    between atoms: _230  and  _232
REMARK   94  A    between atoms: _232  and  _233
REMARK   95  A    between atoms: _232  and  _235
REMARK   96  A    between atoms: _239  and  _240
REMARK   97  A    between atoms: _245  and  _247
REMARK   98  A    between atoms: _247  and  _248
REMARK   99  A    between atoms: _247  and  _250
REMARK  100  A    between atoms: _253  and  _255
REMARK  101  A    between atoms: _255  and  _256
REMARK  102  A    between atoms: _255  and  _258
REMARK  103  A    between atoms: _258  and  _259
REMARK  104  A    between atoms: _262  and  _264
REMARK  105  A    between atoms: _264  and  _265
REMARK  106  A    between atoms: _264  and  _267
REMARK  107  A    between atoms: _267  and  _268
REMARK  108  A    between atoms: _268  and  _269
REMARK  109  A    between atoms: _271  and  _273
REMARK  110  A    between atoms: _273  and  _274
REMARK  111  A    between atoms: _273  and  _276
REMARK  112  A    between atoms: _276  and  _277
REMARK  113  A    between atoms: _277  and  _278
REMARK  114  A    between atoms: _278  and  _279
REMARK  115  A    between atoms: _279  and  _280
REMARK  116  A    between atoms: _284  and  _286
REMARK  117  A    between atoms: _286  and  _287
REMARK  118  A    between atoms: _286  and  _289
REMARK  119  A    between atoms: _289  and  _290
REMARK  120  A    between atoms: _293  and  _295
REMARK  121  A    between atoms: _295  and  _296
REMARK  122  A    between atoms: _295  and  _298
REMARK  123  A    between atoms: _298  and  _299
REMARK  124  A    between atoms: _301  and  _303
REMARK  125  A    between atoms: _303  and  _304
REMARK  126  A    between atoms: _303  and  _306
REMARK  127  A    between atoms: _306  and  _307
REMARK  128  A    between atoms: _307  and  _308
REMARK  129  A    between atoms: _308  and  _309
REMARK  130  A    between atoms: _318  and  _320
REMARK  131  A    between atoms: _320  and  _321
REMARK  132  A    between atoms: _320  and  _323
REMARK  133  A    between atoms: _323  and  _324
REMARK  134  A    between atoms: _329  and  _331
REMARK  135  A    between atoms: _331  and  _332
REMARK  136  A    between atoms: _331  and  _334
REMARK  137  A    between atoms: _334  and  _335
REMARK  138  A    between atoms: _337  and  _339
REMARK  139  A    between atoms: _339  and  _340
REMARK  140  A    between atoms: _339  and  _342
REMARK  141  A    between atoms: _345  and  _347
REMARK  142  A    between atoms: _347  and  _348
REMARK  143  A    between atoms: _351  and  _353
REMARK  144  A    between atoms: _353  and  _354
REMARK  145  A    between atoms: _353  and  _356
REMARK  146  A    between atoms: _356  and  _357
REMARK  147  A    between atoms: _362  and  _364
REMARK  148  A    between atoms: _364  and  _365
REMARK  149  A    between atoms: _364  and  _367
REMARK  150  A    between atoms: _369  and  _371
REMARK  151  A    between atoms: _371  and  _372
REMARK  152  A    between atoms: _371  and  _374
REMARK  153  A    between atoms: _374  and  _375
REMARK  154  A    between atoms: _377  and  _379
REMARK  155  A    between atoms: _379  and  _380
REMARK  156  A    between atoms: _379  and  _382
REMARK  157  A    between atoms: _382  and  _383
REMARK  158  A    between atoms: _383  and  _384
REMARK  159  A    between atoms: _386  and  _388
REMARK  160  A    between atoms: _388  and  _389
REMARK  161  A    between atoms: _388  and  _391
REMARK  162  A    between atoms: _391  and  _392
REMARK  163  A    between atoms: _392  and  _393
REMARK  164  A    between atoms: _396  and  _398
REMARK  165  A    between atoms: _398  and  _399
REMARK  166  A    between atoms: _398  and  _401
REMARK  167  A    between atoms: _404  and  _406
REMARK  168  A    between atoms: _406  and  _407
REMARK  169  A    between atoms: _409  and  _411
REMARK  170  A    between atoms: _411  and  _412
REMARK  171  A    between atoms: _414  and  _416
REMARK  172  A    between atoms: _416  and  _417
REMARK  173  A    between atoms: _416  and  _419
REMARK  174  A    between atoms: _419  and  _420
REMARK  175  A    between atoms: _425  and  _426
REMARK  176  A    between atoms: _428  and  _430
REMARK  177  A    between atoms: _430  and  _431
REMARK  178  A    between atoms: _430  and  _433
REMARK  179  A    between atoms: _433  and  _434
REMARK  180  A    between atoms: _437  and  _439
REMARK  181  A    between atoms: _439  and  _440
REMARK  182  A    between atoms: _443  and  _445
REMARK  183  A    between atoms: _445  and  _446
REMARK  184  A    between atoms: _445  and  _448
REMARK  185  A    between atoms: _448  and  _449
REMARK  186  A    between atoms: _452  and  _454
REMARK  187  A    between atoms: _454  and  _455
REMARK  188  A    between atoms: _454  and  _457
REMARK  189  A    between atoms: _457  and  _458
REMARK  190  A    between atoms: _461  and  _463
REMARK  191  A    between atoms: _463  and  _464
REMARK  192  A    between atoms: _463  and  _466
REMARK  193  A    between atoms: _466  and  _467
REMARK  194  A    between atoms: _470  and  _472
REMARK  195  A    between atoms: _472  and  _473
REMARK  196  A    between atoms: _472  and  _475
REMARK  197  A    between atoms: _478  and  _480
REMARK  198  A    between atoms: _480  and  _481
REMARK                            x       y       z     vdW  Elec       q    Type
REMARK                         _______ _______ _______ _____ _____    ______ ____
ROOT
ATOM      1  CA  ASN A   4     -24.664  44.919  -9.504  0.00  0.00    +0.158 C 
ENDROOT
BRANCH   1   3
ATOM      2  C   ALA A   3     -25.039  43.617 -11.549  0.00  0.00    +0.241 C 
ATOM      3  N   ASN A   4     -24.451  43.756 -10.360  0.00  0.00    -0.297 N 
ATOM      4  H   ASN A   4     -23.814  43.004 -10.029  0.00  0.00    +0.150 HD
ATOM      5  O   ALA A   3     -25.885  44.384 -11.985  0.00  0.00    -0.273 OA
BRANCH   2   6
ATOM      6  CA  ALA A   3     -24.657  42.414 -12.359  0.00  0.00    +0.149 C 
ATOM      7  CB  ALA A   3     -23.624  42.783 -13.432  0.00  0.00    +0.031 C 
BRANCH   6  10
ATOM      8  C   VAL A   2     -26.381  40.729 -12.644  0.00  0.00    +0.241 C 
ATOM      9  O   VAL A   2     -25.810  39.960 -11.873  0.00  0.00    -0.273 OA
ATOM     10  N   ALA A   3     -25.885  41.914 -12.974  0.00  0.00    -0.297 N 
ATOM     11  H   ALA A   3     -26.377  42.496 -13.681  0.00  0.00    +0.150 HD
BRANCH   8  12
ATOM     12  CA  VAL A   2     -27.689  40.343 -13.294  0.00  0.00    +0.148 C 
BRANCH  12  14
ATOM     13  C   SER A   1     -27.821  38.834 -15.192  0.00  0.00    +0.241 C 
ATOM     14  N   VAL A   2     -27.520  39.029 -13.915  0.00  0.00    -0.297 N 
ATOM     15  H   VAL A   2     -27.159  38.236 -13.347  0.00  0.00    +0.150 HD
ATOM     16  O   SER A   1     -28.229  39.740 -15.929  0.00  0.00    -0.274 OA
BRANCH  13  17
ATOM     17  CA  SER A   1     -27.662  37.418 -15.695  0.00  0.00    +0.174 C 
BRANCH  17  18
ATOM     18  N   SER A   1     -28.826  37.049 -16.500  0.00  0.00    -0.236 NA
ATOM     19  H   SER A   1     -29.041  37.602 -17.354  0.00  0.00    +0.142 HD
ENDBRANCH  17  18
BRANCH  17  20
ATOM     20  CB  SER A   1     -26.350  37.257 -16.470  0.00  0.00    +0.163 C 
BRANCH  20  21
ATOM     21  OG  SER A   1     -26.304  36.012 -17.171  0.00  0.00    -0.380 OA
ATOM     22  H   SER A   1     -27.055  35.969 -17.814  0.00  0.00    +0.211 HD
ENDBRANCH  20  21
ENDBRANCH  17  20
ENDBRANCH  13  17
ENDBRANCH  12  14
BRANCH  12  23
ATOM     23  CB  VAL A   2     -28.866  40.362 -12.251  0.00  0.00    +0.027 C 
ATOM     24  CG2 VAL A   2     -29.060  41.754 -11.637  0.00  0.00    +0.002 C 
ATOM     25  CG1 VAL A   2     -30.150  39.877 -12.875  0.00  0.00    +0.002 C 
ENDBRANCH  12  23
ENDBRANCH   8  12
ENDBRANCH   6  10
ENDBRANCH   2   6
ENDBRANCH   1   3
BRANCH   1  26
ATOM     26  C   ASN A   4     -26.148  45.178  -9.174  0.00  0.00    +0.241 C 
ATOM     27  N   CYS A   5     -26.896  44.087  -9.020  0.00  0.00    -0.296 N 
ATOM     28  H   CYS A   5     -26.455  43.155  -9.156  0.00  0.00    +0.150 HD
ATOM     29  O   ASN A   4     -26.600  46.340  -9.088  0.00  0.00    -0.273 OA
BRANCH  27  30
ATOM     30  CA  CYS A   5     -28.305  44.149  -8.669  0.00  0.00    +0.160 C 
BRANCH  30  31
ATOM     31  C   CYS A   5     -28.587  45.237  -7.632  0.00  0.00    +0.242 C 
ATOM     32  O   CYS A   5     -27.888  45.335  -6.633  0.00  0.00    -0.273 OA
ATOM     33  N   SER A   6     -29.621  46.040  -7.884  0.00  0.00    -0.295 N 
ATOM     34  H   SER A   6     -30.130  45.913  -8.782  0.00  0.00    +0.150 HD
BRANCH  33  35
ATOM     35  CA  SER A   6     -30.088  47.101  -6.964  0.00  0.00    +0.178 C 
BRANCH  35  36
ATOM     36  C   SER A   6     -29.166  48.323  -6.805  0.00  0.00    +0.243 C 
ATOM     37  O   SER A   6     -29.475  49.231  -6.044  0.00  0.00    -0.273 OA
ATOM     38  N   MET A   7     -28.030  48.330  -7.496  0.00  0.00    -0.298 N 
ATOM     39  H   MET A   7     -27.790  47.500  -8.074  0.00  0.00    +0.150 HD
BRANCH  38  40
ATOM     40  CA  MET A   7     -27.102  49.468  -7.472  0.00  0.00    +0.138 C 
BRANCH  40  41
ATOM     41  C   MET A   7     -27.355  50.384  -8.681  0.00  0.00    +0.227 C 
ATOM     42  O   MET A   7     -28.094  50.015  -9.601  0.00  0.00    -0.286 OA
ENDBRANCH  40  41
BRANCH  40  43
ATOM     43  CB  MET A   7     -25.649  48.972  -7.458  0.00  0.00    +0.039 C 
BRANCH  43  44
ATOM     44  CG  MET A   7     -25.236  48.350  -6.137  0.00  0.00    +0.060 C 
BRANCH  44  45
ATOM     45  SD  MET A   7     -23.726  47.356  -6.190  0.00  0.00    -0.139 S 
ATOM     46  CE  MET A   7     -23.600  46.920  -4.459  0.00  0.00    +0.069 C 
ENDBRANCH  44  45
ENDBRANCH  43  44
ENDBRANCH  40  43
ENDBRANCH  38  40
ENDBRANCH  35  36
BRANCH  35  47
ATOM     47  CB  SER A   6     -30.456  46.528  -5.586  0.00  0.00    +0.166 C 
BRANCH  47  48
ATOM     48  OG  SER A   6     -29.331  46.426  -4.748  0.00  0.00    -0.380 OA
ATOM     49  H   SER A   6     -28.662  45.828  -5.167  0.00  0.00    +0.211 HD
ENDBRANCH  47  48
ENDBRANCH  35  47
ENDBRANCH  33  35
ENDBRANCH  30  31
BRANCH  30  50
ATOM     50  CB  CYS A   5     -28.766  42.799  -8.133  0.00  0.00    +0.098 C 
ATOM     51  SG  CYS A   5     -30.488  42.805  -7.632  0.00  0.00    -0.080 S 
ENDBRANCH  30  50
ENDBRANCH  27  30
ENDBRANCH   1  26
BRANCH   1  52
ATOM     52  CB  ASN A   4     -24.011  46.169 -10.122  0.00  0.00    +0.114 C 
BRANCH  52  53
ATOM     53  CG  ASN A   4     -22.584  45.914 -10.576  0.00  0.00    +0.222 C 
ATOM     54  OD1 ASN A   4     -21.719  45.566  -9.771  0.00  0.00    -0.275 OA
ATOM     55  ND2 ASN A   4     -22.335  46.066 -11.884  0.00  0.00    -0.329 N 
ATOM     56 HD21 ASN A   4     -21.380  45.888 -12.256  0.00  0.00    +0.145 HD
ATOM     57 HD22 ASN A   4     -23.097  46.362 -12.527  0.00  0.00    +0.145 HD
ENDBRANCH  52  53
ENDBRANCH   1  52
TORSDOF 25
REMARK  Name = ../refined-set-2016/2qbu/2qbu_pocket.pdb
REMARK  198 active torsions:
REMARK  status: ('A' for Active; 'I' for Inactive)
REMARK    1  A    between atoms: _1  and  _3
REMARK    2  A    between atoms: _3  and  _4
REMARK    3  A    between atoms: _6  and  _8
REMARK    4  A    between atoms: _8  and  _9
REMARK    5  A    between atoms: _8  and  _11
REMARK    6  A    between atoms: _14  and  _16
REMARK    7  A    between atoms: _16  and  _17
REMARK    8  A    between atoms: _20  and  _21
REMARK    9  A    between atoms: _26  and  _28
REMARK   10  A    between atoms: _28  and  _29
REMARK   11  A    between atoms: _31  and  _33
REMARK   12  A    between atoms: _33  and  _34
REMARK   13  A    between atoms: _33  and  _36
REMARK   14  A    between atoms: _36  and  _37
REMARK   15  A    between atoms: _40  and  _42
REMARK   16  A    between atoms: _42  and  _43
REMARK   17  A    between atoms: _42  and  _45
REMARK   18  A    between atoms: _45  and  _46
REMARK   19  A    between atoms: _49  and  _51
REMARK   20  A    between atoms: _51  and  _52
REMARK   21  A    between atoms: _51  and  _54
REMARK   22  A    between atoms: _54  and  _55
REMARK   23  A    between atoms: _58  and  _60
REMARK   24  A    between atoms: _60  and  _61
REMARK   25  A    between atoms: _60  and  _63
REMARK   26  A    between atoms: _63  and  _64
REMARK   27  A    between atoms: _67  and  _69
REMARK   28  A    between atoms: _69  and  _70
REMARK   29  A    between atoms: _69  and  _72
REMARK   30  A    between atoms: _72  and  _73
REMARK   31  A    between atoms: _76  and  _78
REMARK   32  A    between atoms: _78  and  _79
REMARK   33  A    between atoms: _81  and  _83
REMARK   34  A    between atoms: _83  and  _84
REMARK   35  A    between atoms: _83  and  _86
REMARK   36  A    between atoms: _86  and  _87
REMARK   37  A    between atoms: _91  and  _92
REMARK   38  A    between atoms: _97  and  _99
REMARK   39  A    between atoms: _99  and  _100
REMARK   40  A    between atoms: _99  and  _102
REMARK   41  A    between atoms: _102  and  _103
REMARK   42  A    between atoms: _105  and  _107
REMARK   43  A    between atoms: _107  and  _108
REMARK   44  A    between atoms: _107  and  _110
REMARK   45  A    between atoms: _110  and  _111
REMARK   46  A    between atoms: _114  and  _116
REMARK   47  A    between atoms: _116  and  _117
REMARK   48  A    between atoms: _116  and  _119
REMARK   49  A    between atoms: _119  and  _120
REMARK   50  A    between atoms: _125  and  _126
REMARK   51  A    between atoms: _128  and  _130
REMARK   52  A    between atoms: _130  and  _131
REMARK   53  A    between atoms: _130  and  _133
REMARK   54  A    between atoms: _133  and  _134
REMARK   55  A    between atoms: _136  and  _138
REMARK   56  A    between atoms: _138  and  _139
REMARK   57  A    between atoms: _138  and  _141
REMARK   58  A    between atoms: _141  and  _142
REMARK   59  A    between atoms: _145  and  _147
REMARK   60  A    between atoms: _147  and  _148
REMARK   61  A    between atoms: _147  and  _150
REMARK   62  A    between atoms: _150  and  _151
REMARK   63  A    between atoms: _157  and  _159
REMARK   64  A    between atoms: _159  and  _160
REMARK   65  A    between atoms: _162  and  _164
REMARK   66  A    between atoms: _164  and  _165
REMARK   67  A    between atoms: _164  and  _167
REMARK   68  A    between atoms: _170  and  _172
REMARK   69  A    between atoms: _172  and  _173
REMARK   70  A    between atoms: _172  and  _175
REMARK   71  A    between atoms: _175  and  _176
REMARK   72  A    between atoms: _179  and  _181
REMARK   73  A    between atoms: _181  and  _182
REMARK   74  A    between atoms: _181  and  _184
REMARK   75  A    between atoms: _184  and  _185
REMARK   76  A    between atoms: _187  and  _189
REMARK   77  A    between atoms: _189  and  _190
REMARK   78  A    between atoms: _189  and  _192
REMARK   79  A    between atoms: _192  and  _193
REMARK   80  A    between atoms: _199  and  _201
REMARK   81  A    between atoms: _201  and  _202
REMARK   82  A    between atoms: _201  and  _204
REMARK   83  A    between atoms: _204  and  _205
REMARK   84  A    between atoms: _208  and  _210
REMARK   85  A    between atoms: _210  and  _211
REMARK   86  A    between atoms: _214  and  _216
REMARK   87  A    between atoms: _216  and  _217
REMARK   88  A    between atoms: _216  and  _219
REMARK   89  A    between atoms: _221  and  _223
REMARK   90  A    between atoms: _223  and  _224
REMARK   91  A    between atoms: _223  and  _226
REMARK   92  A    between atoms: _226  and  _227
REMARK   93  A    between atoms: _230  and  _232
REMARK   94  A    between atoms: _232  and  _233
REMARK   95  A    between atoms: _232  and  _235
REMARK   96  A    between atoms: _239  and  _240
REMARK   97  A    between atoms: _245  and  _247
REMARK   98  A    between atoms: _247  and  _248
REMARK   99  A    between atoms: _247  and  _250
REMARK  100  A    between atoms: _253  and  _255
REMARK  101  A    between atoms: _255  and  _256
REMARK  102  A    between atoms: _255  and  _258
REMARK  103  A    between atoms: _258  and  _259
REMARK  104  A    between atoms: _262  and  _264
REMARK  105  A    between atoms: _264  and  _265
REMARK  106  A    between atoms: _264  and  _267
REMARK  107  A    between atoms: _267  and  _268
REMARK  108  A    between atoms: _268  and  _269
REMARK  109  A    between atoms: _271  and  _273
REMARK  110  A    between atoms: _273  and  _274
REMARK  111  A    between atoms: _273  and  _276
REMARK  112  A    between atoms: _276  and  _277
REMARK  113  A    between atoms: _277  and  _278
REMARK  114  A    between atoms: _278  and  _279
REMARK  115  A    between atoms: _279  and  _280
REMARK  116  A    between atoms: _284  and  _286
REMARK  117  A    between atoms: _286  and  _287
REMARK  118  A    between atoms: _286  and  _289
REMARK  119  A    between atoms: _289  and  _290
REMARK  120  A    between atoms: _293  and  _295
REMARK  121  A    between atoms: _295  and  _296
REMARK  122  A    between atoms: _295  and  _298
REMARK  123  A    between atoms: _298  and  _299
REMARK  124  A    between atoms: _301  and  _303
REMARK  125  A    between atoms: _303  and  _304
REMARK  126  A    between atoms: _303  and  _306
REMARK  127  A    between atoms: _306  and  _307
REMARK  128  A    between atoms: _307  and  _308
REMARK  129  A    between atoms: _308  and  _309
REMARK  130  A    between atoms: _318  and  _320
REMARK  131  A    between atoms: _320  and  _321
REMARK  132  A    between atoms: _320  and  _323
REMARK  133  A    between atoms: _323  and  _324
REMARK  134  A    between atoms: _329  and  _331
REMARK  135  A    between atoms: _331  and  _332
REMARK  136  A    between atoms: _331  and  _334
REMARK  137  A    between atoms: _334  and  _335
REMARK  138  A    between atoms: _337  and  _339
REMARK  139  A    between atoms: _339  and  _340
REMARK  140  A    between atoms: _339  and  _342
REMARK  141  A    between atoms: _345  and  _347
REMARK  142  A    between atoms: _347  and  _348
REMARK  143  A    between atoms: _351  and  _353
REMARK  144  A    between atoms: _353  and  _354
REMARK  145  A    between atoms: _353  and  _356
REMARK  146  A    between atoms: _356  and  _357
REMARK  147  A    between atoms: _362  and  _364
REMARK  148  A    between atoms: _364  and  _365
REMARK  149  A    between atoms: _364  and  _367
REMARK  150  A    between atoms: _369  and  _371
REMARK  151  A    between atoms: _371  and  _372
REMARK  152  A    between atoms: _371  and  _374
REMARK  153  A    between atoms: _374  and  _375
REMARK  154  A    between atoms: _377  and  _379
REMARK  155  A    between atoms: _379  and  _380
REMARK  156  A    between atoms: _379  and  _382
REMARK  157  A    between atoms: _382  and  _383
REMARK  158  A    between atoms: _383  and  _384
REMARK  159  A    between atoms: _386  and  _388
REMARK  160  A    between atoms: _388  and  _389
REMARK  161  A    between atoms: _388  and  _391
REMARK  162  A    between atoms: _391  and  _392
REMARK  163  A    between atoms: _392  and  _393
REMARK  164  A    between atoms: _396  and  _398
REMARK  165  A    between atoms: _398  and  _399
REMARK  166  A    between atoms: _398  and  _401
REMARK  167  A    between atoms: _404  and  _406
REMARK  168  A    between atoms: _406  and  _407
REMARK  169  A    between atoms: _409  and  _411
REMARK  170  A    between atoms: _411  and  _412
REMARK  171  A    between atoms: _414  and  _416
REMARK  172  A    between atoms: _416  and  _417
REMARK  173  A    between atoms: _416  and  _419
REMARK  174  A    between atoms: _419  and  _420
REMARK  175  A    between atoms: _425  and  _426
REMARK  176  A    between atoms: _428  and  _430
REMARK  177  A    between atoms: _430  and  _431
REMARK  178  A    between atoms: _430  and  _433
REMARK  179  A    between atoms: _433  and  _434
REMARK  180  A    between atoms: _437  and  _439
REMARK  181  A    between atoms: _439  and  _440
REMARK  182  A    between atoms: _443  and  _445
REMARK  183  A    between atoms: _445  and  _446
REMARK  184  A    between atoms: _445  and  _448
REMARK  185  A    between atoms: _448  and  _449
REMARK  186  A    between atoms: _452  and  _454
REMARK  187  A    between atoms: _454  and  _455
REMARK  188  A    between atoms: _454  and  _457
REMARK  189  A    between atoms: _457  and  _458
REMARK  190  A    between atoms: _461  and  _463
REMARK  191  A    between atoms: _463  and  _464
REMARK  192  A    between atoms: _463  and  _466
REMARK  193  A    between atoms: _466  and  _467
REMARK  194  A    between atoms: _470  and  _472
REMARK  195  A    between atoms: _472  and  _473
REMARK  196  A    between atoms: _472  and  _475
REMARK  197  A    between atoms: _478  and  _480
REMARK  198  A    between atoms: _480  and  _481
REMARK                            x       y       z     vdW  Elec       q    Type
REMARK                         _______ _______ _______ _____ _____    ______ ____
ROOT
ATOM      1  C   GLU A   1     -27.256  47.171 -13.772  0.00  0.00    +0.238 C 
ATOM      2  N   VAL A   2     -26.901  45.963 -14.194  0.00  0.00    -0.298 N 
ATOM      3  H   VAL A   2     -26.455  45.304 -13.524  0.00  0.00    +0.150 HD
ATOM      4  O   GLU A   1     -27.648  48.057 -14.532  0.00  0.00    -0.274 OA
ENDROOT
BRANCH   1   5
ATOM      5  CA  GLU A   1     -27.140  47.427 -12.263  0.00  0.00    +0.145 C 
BRANCH   5   6
ATOM      6  N   GLU A   1     -26.508  48.720 -11.968  0.00  0.00    -0.238 NA
ATOM      7  H   GLU A   1     -26.978  49.374 -11.310  0.00  0.00    +0.142 HD
ENDBRANCH   5   6
BRANCH   5   8
ATOM      8  CB  GLU A   1     -28.534  47.362 -11.634  0.00  0.00    +0.038 C 
BRANCH   8   9
ATOM      9  CG  GLU A   1     -29.356  46.122 -12.036  0.00  0.00    +0.116 C 
BRANCH   9  10
ATOM     10  CD  GLU A   1     -30.750  46.169 -11.437  0.00  0.00    +0.365 C 
ATOM     11  OE2 GLU A   1     -30.881  46.045 -10.210  0.00  0.00    -0.246 OA
ATOM     12  OE1 GLU A   1     -31.713  46.384 -12.184  0.00  0.00    -0.246 OA
ENDBRANCH   9  10
ENDBRANCH   8   9
ENDBRANCH   5   8
ENDBRANCH   1   5
BRANCH   2  13
ATOM     13  CA  VAL A   2     -27.120  45.533 -15.576  0.00  0.00    +0.137 C 
BRANCH  13  14
ATOM     14  CB  VAL A   2     -25.775  45.353 -16.344  0.00  0.00    +0.026 C 
ATOM     15  CG2 VAL A   2     -24.961  46.648 -16.346  0.00  0.00    +0.002 C 
ATOM     16  CG1 VAL A   2     -26.026  44.892 -17.771  0.00  0.00    +0.002 C 
ENDBRANCH  13  14
BRANCH  13  17
ATOM     17  C   VAL A   2     -27.862  44.197 -15.553  0.00  0.00    +0.227 C 
ATOM     18  O   VAL A   2     -27.463  43.288 -14.843  0.00  0.00    -0.286 OA
ENDBRANCH  13  17
ENDBRANCH   2  13
TORSDOF 8
REMARK  Name = ../refined-set-2016/2qbu/2qbu_pocket.pdb
REMARK  198 active torsions:
REMARK  status: ('A' for Active; 'I' for Inactive)
REMARK    1  A    between atoms: _1  and  _3
REMARK    2  A    between atoms: _3  and  _4
REMARK    3  A    between atoms: _6  and  _8
REMARK    4  A    between atoms: _8  and  _9
REMARK    5  A    between atoms: _8  and  _11
REMARK    6  A    between atoms: _14  and  _16
REMARK    7  A    between atoms: _16  and  _17
REMARK    8  A    between atoms: _20  and  _21
REMARK    9  A    between atoms: _26  and  _28
REMARK   10  A    between atoms: _28  and  _29
REMARK   11  A    between atoms: _31  and  _33
REMARK   12  A    between atoms: _33  and  _34
REMARK   13  A    between atoms: _33  and  _36
REMARK   14  A    between atoms: _36  and  _37
REMARK   15  A    between atoms: _40  and  _42
REMARK   16  A    between atoms: _42  and  _43
REMARK   17  A    between atoms: _42  and  _45
REMARK   18  A    between atoms: _45  and  _46
REMARK   19  A    between atoms: _49  and  _51
REMARK   20  A    between atoms: _51  and  _52
REMARK   21  A    between atoms: _51  and  _54
REMARK   22  A    between atoms: _54  and  _55
REMARK   23  A    between atoms: _58  and  _60
REMARK   24  A    between atoms: _60  and  _61
REMARK   25  A    between atoms: _60  and  _63
REMARK   26  A    between atoms: _63  and  _64
REMARK   27  A    between atoms: _67  and  _69
REMARK   28  A    between atoms: _69  and  _70
REMARK   29  A    between atoms: _69  and  _72
REMARK   30  A    between atoms: _72  and  _73
REMARK   31  A    between atoms: _76  and  _78
REMARK   32  A    between atoms: _78  and  _79
REMARK   33  A    between atoms: _81  and  _83
REMARK   34  A    between atoms: _83  and  _84
REMARK   35  A    between atoms: _83  and  _86
REMARK   36  A    between atoms: _86  and  _87
REMARK   37  A    between atoms: _91  and  _92
REMARK   38  A    between atoms: _97  and  _99
REMARK   39  A    between atoms: _99  and  _100
REMARK   40  A    between atoms: _99  and  _102
REMARK   41  A    between atoms: _102  and  _103
REMARK   42  A    between atoms: _105  and  _107
REMARK   43  A    between atoms: _107  and  _108
REMARK   44  A    between atoms: _107  and  _110
REMARK   45  A    between atoms: _110  and  _111
REMARK   46  A    between atoms: _114  and  _116
REMARK   47  A    between atoms: _116  and  _117
REMARK   48  A    between atoms: _116  and  _119
REMARK   49  A    between atoms: _119  and  _120
REMARK   50  A    between atoms: _125  and  _126
REMARK   51  A    between atoms: _128  and  _130
REMARK   52  A    between atoms: _130  and  _131
REMARK   53  A    between atoms: _130  and  _133
REMARK   54  A    between atoms: _133  and  _134
REMARK   55  A    between atoms: _136  and  _138
REMARK   56  A    between atoms: _138  and  _139
REMARK   57  A    between atoms: _138  and  _141
REMARK   58  A    between atoms: _141  and  _142
REMARK   59  A    between atoms: _145  and  _147
REMARK   60  A    between atoms: _147  and  _148
REMARK   61  A    between atoms: _147  and  _150
REMARK   62  A    between atoms: _150  and  _151
REMARK   63  A    between atoms: _157  and  _159
REMARK   64  A    between atoms: _159  and  _160
REMARK   65  A    between atoms: _162  and  _164
REMARK   66  A    between atoms: _164  and  _165
REMARK   67  A    between atoms: _164  and  _167
REMARK   68  A    between atoms: _170  and  _172
REMARK   69  A    between atoms: _172  and  _173
REMARK   70  A    between atoms: _172  and  _175
REMARK   71  A    between atoms: _175  and  _176
REMARK   72  A    between atoms: _179  and  _181
REMARK   73  A    between atoms: _181  and  _182
REMARK   74  A    between atoms: _181  and  _184
REMARK   75  A    between atoms: _184  and  _185
REMARK   76  A    between atoms: _187  and  _189
REMARK   77  A    between atoms: _189  and  _190
REMARK   78  A    between atoms: _189  and  _192
REMARK   79  A    between atoms: _192  and  _193
REMARK   80  A    between atoms: _199  and  _201
REMARK   81  A    between atoms: _201  and  _202
REMARK   82  A    between atoms: _201  and  _204
REMARK   83  A    between atoms: _204  and  _205
REMARK   84  A    between atoms: _208  and  _210
REMARK   85  A    between atoms: _210  and  _211
REMARK   86  A    between atoms: _214  and  _216
REMARK   87  A    between atoms: _216  and  _217
REMARK   88  A    between atoms: _216  and  _219
REMARK   89  A    between atoms: _221  and  _223
REMARK   90  A    between atoms: _223  and  _224
REMARK   91  A    between atoms: _223  and  _226
REMARK   92  A    between atoms: _226  and  _227
REMARK   93  A    between atoms: _230  and  _232
REMARK   94  A    between atoms: _232  and  _233
REMARK   95  A    between atoms: _232  and  _235
REMARK   96  A    between atoms: _239  and  _240
REMARK   97  A    between atoms: _245  and  _247
REMARK   98  A    between atoms: _247  and  _248
REMARK   99  A    between atoms: _247  and  _250
REMARK  100  A    between atoms: _253  and  _255
REMARK  101  A    between atoms: _255  and  _256
REMARK  102  A    between atoms: _255  and  _258
REMARK  103  A    between atoms: _258  and  _259
REMARK  104  A    between atoms: _262  and  _264
REMARK  105  A    between atoms: _264  and  _265
REMARK  106  A    between atoms: _264  and  _267
REMARK  107  A    between atoms: _267  and  _268
REMARK  108  A    between atoms: _268  and  _269
REMARK  109  A    between atoms: _271  and  _273
REMARK  110  A    between atoms: _273  and  _274
REMARK  111  A    between atoms: _273  and  _276
REMARK  112  A    between atoms: _276  and  _277
REMARK  113  A    between atoms: _277  and  _278
REMARK  114  A    between atoms: _278  and  _279
REMARK  115  A    between atoms: _279  and  _280
REMARK  116  A    between atoms: _284  and  _286
REMARK  117  A    between atoms: _286  and  _287
REMARK  118  A    between atoms: _286  and  _289
REMARK  119  A    between atoms: _289  and  _290
REMARK  120  A    between atoms: _293  and  _295
REMARK  121  A    between atoms: _295  and  _296
REMARK  122  A    between atoms: _295  and  _298
REMARK  123  A    between atoms: _298  and  _299
REMARK  124  A    between atoms: _301  and  _303
REMARK  125  A    between atoms: _303  and  _304
REMARK  126  A    between atoms: _303  and  _306
REMARK  127  A    between atoms: _306  and  _307
REMARK  128  A    between atoms: _307  and  _308
REMARK  129  A    between atoms: _308  and  _309
REMARK  130  A    between atoms: _318  and  _320
REMARK  131  A    between atoms: _320  and  _321
REMARK  132  A    between atoms: _320  and  _323
REMARK  133  A    between atoms: _323  and  _324
REMARK  134  A    between atoms: _329  and  _331
REMARK  135  A    between atoms: _331  and  _332
REMARK  136  A    between atoms: _331  and  _334
REMARK  137  A    between atoms: _334  and  _335
REMARK  138  A    between atoms: _337  and  _339
REMARK  139  A    between atoms: _339  and  _340
REMARK  140  A    between atoms: _339  and  _342
REMARK  141  A    between atoms: _345  and  _347
REMARK  142  A    between atoms: _347  and  _348
REMARK  143  A    between atoms: _351  and  _353
REMARK  144  A    between atoms: _353  and  _354
REMARK  145  A    between atoms: _353  and  _356
REMARK  146  A    between atoms: _356  and  _357
REMARK  147  A    between atoms: _362  and  _364
REMARK  148  A    between atoms: _364  and  _365
REMARK  149  A    between atoms: _364  and  _367
REMARK  150  A    between atoms: _369  and  _371
REMARK  151  A    between atoms: _371  and  _372
REMARK  152  A    between atoms: _371  and  _374
REMARK  153  A    between atoms: _374  and  _375
REMARK  154  A    between atoms: _377  and  _379
REMARK  155  A    between atoms: _379  and  _380
REMARK  156  A    between atoms: _379  and  _382
REMARK  157  A    between atoms: _382  and  _383
REMARK  158  A    between atoms: _383  and  _384
REMARK  159  A    between atoms: _386  and  _388
REMARK  160  A    between atoms: _388  and  _389
REMARK  161  A    between atoms: _388  and  _391
REMARK  162  A    between atoms: _391  and  _392
REMARK  163  A    between atoms: _392  and  _393
REMARK  164  A    between atoms: _396  and  _398
REMARK  165  A    between atoms: _398  and  _399
REMARK  166  A    between atoms: _398  and  _401
REMARK  167  A    between atoms: _404  and  _406
REMARK  168  A    between atoms: _406  and  _407
REMARK  169  A    between atoms: _409  and  _411
REMARK  170  A    between atoms: _411  and  _412
REMARK  171  A    between atoms: _414  and  _416
REMARK  172  A    between atoms: _416  and  _417
REMARK  173  A    between atoms: _416  and  _419
REMARK  174  A    between atoms: _419  and  _420
REMARK  175  A    between atoms: _425  and  _426
REMARK  176  A    between atoms: _428  and  _430
REMARK  177  A    between atoms: _430  and  _431
REMARK  178  A    between atoms: _430  and  _433
REMARK  179  A    between atoms: _433  and  _434
REMARK  180  A    between atoms: _437  and  _439
REMARK  181  A    between atoms: _439  and  _440
REMARK  182  A    between atoms: _443  and  _445
REMARK  183  A    between atoms: _445  and  _446
REMARK  184  A    between atoms: _445  and  _448
REMARK  185  A    between atoms: _448  and  _449
REMARK  186  A    between atoms: _452  and  _454
REMARK  187  A    between atoms: _454  and  _455
REMARK  188  A    between atoms: _454  and  _457
REMARK  189  A    between atoms: _457  and  _458
REMARK  190  A    between atoms: _461  and  _463
REMARK  191  A    between atoms: _463  and  _464
REMARK  192  A    between atoms: _463  and  _466
REMARK  193  A    between atoms: _466  and  _467
REMARK  194  A    between atoms: _470  and  _472
REMARK  195  A    between atoms: _472  and  _473
REMARK  196  A    between atoms: _472  and  _475
REMARK  197  A    between atoms: _478  and  _480
REMARK  198  A    between atoms: _480  and  _481
REMARK                            x       y       z     vdW  Elec       q    Type
REMARK                         _______ _______ _______ _____ _____    ______ ____
ROOT
ATOM      1  CA  LEU A   4     -21.162  41.076  -8.205  0.00  0.00    +0.149 C 
ENDROOT
BRANCH   1   4
ATOM      2  C   TYR A   3     -18.950  40.210  -8.705  0.00  0.00    +0.241 C 
ATOM      3  O   TYR A   3     -19.302  39.041  -8.497  0.00  0.00    -0.273 OA
ATOM      4  N   LEU A   4     -19.778  41.244  -8.624  0.00  0.00    -0.297 N 
ATOM      5  H   LEU A   4     -19.431  42.194  -8.865  0.00  0.00    +0.150 HD
BRANCH   2   6
ATOM      6  CA  TYR A   3     -17.500  40.530  -9.101  0.00  0.00    +0.153 C 
BRANCH   6   8
ATOM      7  C   GLY A   2     -17.798  40.942 -11.497  0.00  0.00    +0.243 C 
ATOM      8  N   TYR A   3     -17.409  41.372 -10.299  0.00  0.00    -0.297 N 
ATOM      9  H   TYR A   3     -17.028  42.336 -10.209  0.00  0.00    +0.150 HD
ATOM     10  O   GLY A   2     -18.360  39.862 -11.674  0.00  0.00    -0.273 OA
BRANCH   7  11
ATOM     11  CA  GLY A   2     -17.527  41.871 -12.667  0.00  0.00    +0.176 C 
BRANCH  11  14
ATOM     12  C   GLY A   1     -19.598  41.962 -13.970  0.00  0.00    +0.240 C 
ATOM     13  O   GLY A   1     -20.149  42.714 -13.149  0.00  0.00    -0.274 OA
ATOM     14  N   GLY A   2     -18.341  41.537 -13.837  0.00  0.00    -0.295 N 
ATOM     15  H   GLY A   2     -17.926  40.950 -14.588  0.00  0.00    +0.150 HD
BRANCH  12  16
ATOM     16  CA  GLY A   1     -20.350  41.506 -15.210  0.00  0.00    +0.169 C 
BRANCH  16  17
ATOM     17  N   GLY A   1     -19.711  40.491 -16.059  0.00  0.00    -0.236 NA
ATOM     18  H   GLY A   1     -19.948  39.489 -15.909  0.00  0.00    +0.142 HD
ENDBRANCH  16  17
ENDBRANCH  12  16
ENDBRANCH  11  14
ENDBRANCH   7  11
ENDBRANCH   6   8
BRANCH   6  19
ATOM     19  CB  TYR A   3     -16.722  41.144  -7.917  0.00  0.00    +0.055 C 
BRANCH  19  20
ATOM     20  CG  TYR A   3     -16.940  40.421  -6.595  0.00  0.00    -0.020 A 
ATOM     21  CD2 TYR A   3     -17.245  41.126  -5.438  0.00  0.00    -0.001 A 
ATOM     22  CE2 TYR A   3     -17.458  40.460  -4.223  0.00  0.00    +0.036 A 
ATOM     23  CZ  TYR A   3     -17.353  39.078  -4.170  0.00  0.00    +0.134 A 
ATOM     24  CE1 TYR A   3     -17.044  38.359  -5.307  0.00  0.00    +0.036 A 
ATOM     25  CD1 TYR A   3     -16.843  39.031  -6.510  0.00  0.00    -0.001 A 
BRANCH  23  26
ATOM     26  OH  TYR A   3     -17.551  38.415  -2.979  0.00  0.00    -0.506 OA
ATOM     27  HH  TYR A   3     -18.466  38.598  -2.649  0.00  0.00    +0.292 HD
ENDBRANCH  23  26
ENDBRANCH  19  20
ENDBRANCH   6  19
ENDBRANCH   2   6
ENDBRANCH   1   4
BRANCH   1  28
ATOM     28  C   LEU A   4     -22.030  40.762  -9.394  0.00  0.00    +0.241 C 
ATOM     29  N   ALA A   5     -21.937  39.524  -9.844  0.00  0.00    -0.297 N 
ATOM     30  H   ALA A   5     -21.258  38.874  -9.398  0.00  0.00    +0.150 HD
ATOM     31  O   LEU A   4     -22.747  41.618  -9.901  0.00  0.00    -0.273 OA
BRANCH  29  32
ATOM     32  CA  ALA A   5     -22.751  39.046 -10.937  0.00  0.00    +0.149 C 
ATOM     33  CB  ALA A   5     -21.950  39.000 -12.236  0.00  0.00    +0.031 C 
BRANCH  32  34
ATOM     34  C   ALA A   5     -23.304  37.679 -10.593  0.00  0.00    +0.241 C 
ATOM     35  O   ALA A   5     -22.593  36.839 -10.030  0.00  0.00    -0.273 OA
ATOM     36  N   THR A   6     -24.571  37.472 -10.944  0.00  0.00    -0.295 N 
ATOM     37  H   THR A   6     -25.084  38.241 -11.421  0.00  0.00    +0.150 HD
BRANCH  36  38
ATOM     38  CA  THR A   6     -25.277  36.219 -10.692  0.00  0.00    +0.176 C 
BRANCH  38  39
ATOM     39  C   THR A   6     -26.054  35.793 -11.934  0.00  0.00    +0.243 C 
ATOM     40  N   THR A   7     -26.046  34.493 -12.234  0.00  0.00    -0.296 N 
ATOM     41  H   THR A   7     -25.435  33.856 -11.684  0.00  0.00    +0.150 HD
ATOM     42  O   THR A   6     -26.674  36.632 -12.592  0.00  0.00    -0.273 OA
BRANCH  40  43
ATOM     43  CA  THR A   7     -26.868  33.928 -13.313  0.00  0.00    +0.164 C 
BRANCH  43  44
ATOM     44  CB  THR A   7     -26.053  33.057 -14.294  0.00  0.00    +0.136 C 
ATOM     45  CG2 THR A   7     -26.936  32.514 -15.437  0.00  0.00    +0.034 C 
BRANCH  44  46
ATOM     46  OG1 THR A   7     -25.005  33.840 -14.866  0.00  0.00    -0.382 OA
ATOM     47  HG1 THR A   7     -24.412  34.171 -14.146  0.00  0.00    +0.210 HD
ENDBRANCH  44  46
ENDBRANCH  43  44
BRANCH  43  48
ATOM     48  C   THR A   7     -28.009  33.083 -12.761  0.00  0.00    +0.229 C 
ATOM     49  O   THR A   7     -27.811  32.239 -11.868  0.00  0.00    -0.286 OA
ENDBRANCH  43  48
ENDBRANCH  40  43
ENDBRANCH  38  39
BRANCH  38  50
ATOM     50  CB  THR A   6     -26.258  36.384  -9.498  0.00  0.00    +0.137 C 
ATOM     51  CG2 THR A   6     -27.010  35.077  -9.183  0.00  0.00    +0.034 C 
BRANCH  50  52
ATOM     52  OG1 THR A   6     -25.529  36.797  -8.339  0.00  0.00    -0.382 OA
ATOM     53  HG1 THR A   6     -26.153  36.902  -7.578  0.00  0.00    +0.210 HD
ENDBRANCH  50  52
ENDBRANCH  38  50
ENDBRANCH  36  38
ENDBRANCH  32  34
ENDBRANCH  29  32
ENDBRANCH   1  28
BRANCH   1  54
ATOM     54  CB  LEU A   4     -21.665  42.325  -7.488  0.00  0.00    +0.029 C 
BRANCH  54  55
ATOM     55  CG  LEU A   4     -20.961  42.696  -6.185  0.00  0.00    +0.002 C 
ATOM     56  CD2 LEU A   4     -20.887  41.516  -5.222  0.00  0.00    +0.000 C 
ATOM     57  CD1 LEU A   4     -21.657  43.873  -5.546  0.00  0.00    +0.000 C 
ENDBRANCH  54  55
ENDBRANCH   1  54
TORSDOF 23
REMARK  Name = ../refined-set-2016/2qbu/2qbu_pocket.pdb
REMARK  198 active torsions:
REMARK  status: ('A' for Active; 'I' for Inactive)
REMARK    1  A    between atoms: _1  and  _3
REMARK    2  A    between atoms: _3  and  _4
REMARK    3  A    between atoms: _6  and  _8
REMARK    4  A    between atoms: _8  and  _9
REMARK    5  A    between atoms: _8  and  _11
REMARK    6  A    between atoms: _14  and  _16
REMARK    7  A    between atoms: _16  and  _17
REMARK    8  A    between atoms: _20  and  _21
REMARK    9  A    between atoms: _26  and  _28
REMARK   10  A    between atoms: _28  and  _29
REMARK   11  A    between atoms: _31  and  _33
REMARK   12  A    between atoms: _33  and  _34
REMARK   13  A    between atoms: _33  and  _36
REMARK   14  A    between atoms: _36  and  _37
REMARK   15  A    between atoms: _40  and  _42
REMARK   16  A    between atoms: _42  and  _43
REMARK   17  A    between atoms: _42  and  _45
REMARK   18  A    between atoms: _45  and  _46
REMARK   19  A    between atoms: _49  and  _51
REMARK   20  A    between atoms: _51  and  _52
REMARK   21  A    between atoms: _51  and  _54
REMARK   22  A    between atoms: _54  and  _55
REMARK   23  A    between atoms: _58  and  _60
REMARK   24  A    between atoms: _60  and  _61
REMARK   25  A    between atoms: _60  and  _63
REMARK   26  A    between atoms: _63  and  _64
REMARK   27  A    between atoms: _67  and  _69
REMARK   28  A    between atoms: _69  and  _70
REMARK   29  A    between atoms: _69  and  _72
REMARK   30  A    between atoms: _72  and  _73
REMARK   31  A    between atoms: _76  and  _78
REMARK   32  A    between atoms: _78  and  _79
REMARK   33  A    between atoms: _81  and  _83
REMARK   34  A    between atoms: _83  and  _84
REMARK   35  A    between atoms: _83  and  _86
REMARK   36  A    between atoms: _86  and  _87
REMARK   37  A    between atoms: _91  and  _92
REMARK   38  A    between atoms: _97  and  _99
REMARK   39  A    between atoms: _99  and  _100
REMARK   40  A    between atoms: _99  and  _102
REMARK   41  A    between atoms: _102  and  _103
REMARK   42  A    between atoms: _105  and  _107
REMARK   43  A    between atoms: _107  and  _108
REMARK   44  A    between atoms: _107  and  _110
REMARK   45  A    between atoms: _110  and  _111
REMARK   46  A    between atoms: _114  and  _116
REMARK   47  A    between atoms: _116  and  _117
REMARK   48  A    between atoms: _116  and  _119
REMARK   49  A    between atoms: _119  and  _120
REMARK   50  A    between atoms: _125  and  _126
REMARK   51  A    between atoms: _128  and  _130
REMARK   52  A    between atoms: _130  and  _131
REMARK   53  A    between atoms: _130  and  _133
REMARK   54  A    between atoms: _133  and  _134
REMARK   55  A    between atoms: _136  and  _138
REMARK   56  A    between atoms: _138  and  _139
REMARK   57  A    between atoms: _138  and  _141
REMARK   58  A    between atoms: _141  and  _142
REMARK   59  A    between atoms: _145  and  _147
REMARK   60  A    between atoms: _147  and  _148
REMARK   61  A    between atoms: _147  and  _150
REMARK   62  A    between atoms: _150  and  _151
REMARK   63  A    between atoms: _157  and  _159
REMARK   64  A    between atoms: _159  and  _160
REMARK   65  A    between atoms: _162  and  _164
REMARK   66  A    between atoms: _164  and  _165
REMARK   67  A    between atoms: _164  and  _167
REMARK   68  A    between atoms: _170  and  _172
REMARK   69  A    between atoms: _172  and  _173
REMARK   70  A    between atoms: _172  and  _175
REMARK   71  A    between atoms: _175  and  _176
REMARK   72  A    between atoms: _179  and  _181
REMARK   73  A    between atoms: _181  and  _182
REMARK   74  A    between atoms: _181  and  _184
REMARK   75  A    between atoms: _184  and  _185
REMARK   76  A    between atoms: _187  and  _189
REMARK   77  A    between atoms: _189  and  _190
REMARK   78  A    between atoms: _189  and  _192
REMARK   79  A    between atoms: _192  and  _193
REMARK   80  A    between atoms: _199  and  _201
REMARK   81  A    between atoms: _201  and  _202
REMARK   82  A    between atoms: _201  and  _204
REMARK   83  A    between atoms: _204  and  _205
REMARK   84  A    between atoms: _208  and  _210
REMARK   85  A    between atoms: _210  and  _211
REMARK   86  A    between atoms: _214  and  _216
REMARK   87  A    between atoms: _216  and  _217
REMARK   88  A    between atoms: _216  and  _219
REMARK   89  A    between atoms: _221  and  _223
REMARK   90  A    between atoms: _223  and  _224
REMARK   91  A    between atoms: _223  and  _226
REMARK   92  A    between atoms: _226  and  _227
REMARK   93  A    between atoms: _230  and  _232
REMARK   94  A    between atoms: _232  and  _233
REMARK   95  A    between atoms: _232  and  _235
REMARK   96  A    between atoms: _239  and  _240
REMARK   97  A    between atoms: _245  and  _247
REMARK   98  A    between atoms: _247  and  _248
REMARK   99  A    between atoms: _247  and  _250
REMARK  100  A    between atoms: _253  and  _255
REMARK  101  A    between atoms: _255  and  _256
REMARK  102  A    between atoms: _255  and  _258
REMARK  103  A    between atoms: _258  and  _259
REMARK  104  A    between atoms: _262  and  _264
REMARK  105  A    between atoms: _264  and  _265
REMARK  106  A    between atoms: _264  and  _267
REMARK  107  A    between atoms: _267  and  _268
REMARK  108  A    between atoms: _268  and  _269
REMARK  109  A    between atoms: _271  and  _273
REMARK  110  A    between atoms: _273  and  _274
REMARK  111  A    between atoms: _273  and  _276
REMARK  112  A    between atoms: _276  and  _277
REMARK  113  A    between atoms: _277  and  _278
REMARK  114  A    between atoms: _278  and  _279
REMARK  115  A    between atoms: _279  and  _280
REMARK  116  A    between atoms: _284  and  _286
REMARK  117  A    between atoms: _286  and  _287
REMARK  118  A    between atoms: _286  and  _289
REMARK  119  A    between atoms: _289  and  _290
REMARK  120  A    between atoms: _293  and  _295
REMARK  121  A    between atoms: _295  and  _296
REMARK  122  A    between atoms: _295  and  _298
REMARK  123  A    between atoms: _298  and  _299
REMARK  124  A    between atoms: _301  and  _303
REMARK  125  A    between atoms: _303  and  _304
REMARK  126  A    between atoms: _303  and  _306
REMARK  127  A    between atoms: _306  and  _307
REMARK  128  A    between atoms: _307  and  _308
REMARK  129  A    between atoms: _308  and  _309
REMARK  130  A    between atoms: _318  and  _320
REMARK  131  A    between atoms: _320  and  _321
REMARK  132  A    between atoms: _320  and  _323
REMARK  133  A    between atoms: _323  and  _324
REMARK  134  A    between atoms: _329  and  _331
REMARK  135  A    between atoms: _331  and  _332
REMARK  136  A    between atoms: _331  and  _334
REMARK  137  A    between atoms: _334  and  _335
REMARK  138  A    between atoms: _337  and  _339
REMARK  139  A    between atoms: _339  and  _340
REMARK  140  A    between atoms: _339  and  _342
REMARK  141  A    between atoms: _345  and  _347
REMARK  142  A    between atoms: _347  and  _348
REMARK  143  A    between atoms: _351  and  _353
REMARK  144  A    between atoms: _353  and  _354
REMARK  145  A    between atoms: _353  and  _356
REMARK  146  A    between atoms: _356  and  _357
REMARK  147  A    between atoms: _362  and  _364
REMARK  148  A    between atoms: _364  and  _365
REMARK  149  A    between atoms: _364  and  _367
REMARK  150  A    between atoms: _369  and  _371
REMARK  151  A    between atoms: _371  and  _372
REMARK  152  A    between atoms: _371  and  _374
REMARK  153  A    between atoms: _374  and  _375
REMARK  154  A    between atoms: _377  and  _379
REMARK  155  A    between atoms: _379  and  _380
REMARK  156  A    between atoms: _379  and  _382
REMARK  157  A    between atoms: _382  and  _383
REMARK  158  A    between atoms: _383  and  _384
REMARK  159  A    between atoms: _386  and  _388
REMARK  160  A    between atoms: _388  and  _389
REMARK  161  A    between atoms: _388  and  _391
REMARK  162  A    between atoms: _391  and  _392
REMARK  163  A    between atoms: _392  and  _393
REMARK  164  A    between atoms: _396  and  _398
REMARK  165  A    between atoms: _398  and  _399
REMARK  166  A    between atoms: _398  and  _401
REMARK  167  A    between atoms: _404  and  _406
REMARK  168  A    between atoms: _406  and  _407
REMARK  169  A    between atoms: _409  and  _411
REMARK  170  A    between atoms: _411  and  _412
REMARK  171  A    between atoms: _414  and  _416
REMARK  172  A    between atoms: _416  and  _417
REMARK  173  A    between atoms: _416  and  _419
REMARK  174  A    between atoms: _419  and  _420
REMARK  175  A    between atoms: _425  and  _426
REMARK  176  A    between atoms: _428  and  _430
REMARK  177  A    between atoms: _430  and  _431
REMARK  178  A    between atoms: _430  and  _433
REMARK  179  A    between atoms: _433  and  _434
REMARK  180  A    between atoms: _437  and  _439
REMARK  181  A    between atoms: _439  and  _440
REMARK  182  A    between atoms: _443  and  _445
REMARK  183  A    between atoms: _445  and  _446
REMARK  184  A    between atoms: _445  and  _448
REMARK  185  A    between atoms: _448  and  _449
REMARK  186  A    between atoms: _452  and  _454
REMARK  187  A    between atoms: _454  and  _455
REMARK  188  A    between atoms: _454  and  _457
REMARK  189  A    between atoms: _457  and  _458
REMARK  190  A    between atoms: _461  and  _463
REMARK  191  A    between atoms: _463  and  _464
REMARK  192  A    between atoms: _463  and  _466
REMARK  193  A    between atoms: _466  and  _467
REMARK  194  A    between atoms: _470  and  _472
REMARK  195  A    between atoms: _472  and  _473
REMARK  196  A    between atoms: _472  and  _475
REMARK  197  A    between atoms: _478  and  _480
REMARK  198  A    between atoms: _480  and  _481
REMARK                            x       y       z     vdW  Elec       q    Type
REMARK                         _______ _______ _______ _____ _____    ______ ____
ROOT
ATOM      1  CA  THR A   1     -32.365  32.677   5.909  0.00  0.00    +0.160 C 
ENDROOT
BRANCH   1   2
ATOM      2  N   THR A   1     -33.495  31.931   5.342  0.00  0.00    -0.237 NA
ATOM      3  H   THR A   1     -34.075  32.353   4.589  0.00  0.00    +0.142 HD
ENDBRANCH   1   2
BRANCH   1   4
ATOM      4  C   THR A   1     -32.732  33.261   7.269  0.00  0.00    +0.227 C 
ATOM      5  O   THR A   1     -31.886  33.371   8.160  0.00  0.00    -0.287 OA
ENDBRANCH   1   4
BRANCH   1   6
ATOM      6  CB  THR A   1     -31.877  33.821   4.989  0.00  0.00    +0.134 C 
ATOM      7  CG2 THR A   1     -31.374  33.274   3.673  0.00  0.00    +0.034 C 
BRANCH   6   8
ATOM      8  OG1 THR A   1     -32.945  34.756   4.763  0.00  0.00    -0.383 OA
ATOM      9  HG1 THR A   1     -32.625  35.484   4.174  0.00  0.00    +0.210 HD
ENDBRANCH   6   8
ENDBRANCH   1   6
TORSDOF 4
REMARK  Name = ../refined-set-2016/2qbu/2qbu_pocket.pdb
REMARK  198 active torsions:
REMARK  status: ('A' for Active; 'I' for Inactive)
REMARK    1  A    between atoms: _1  and  _3
REMARK    2  A    between atoms: _3  and  _4
REMARK    3  A    between atoms: _6  and  _8
REMARK    4  A    between atoms: _8  and  _9
REMARK    5  A    between atoms: _8  and  _11
REMARK    6  A    between atoms: _14  and  _16
REMARK    7  A    between atoms: _16  and  _17
REMARK    8  A    between atoms: _20  and  _21
REMARK    9  A    between atoms: _26  and  _28
REMARK   10  A    between atoms: _28  and  _29
REMARK   11  A    between atoms: _31  and  _33
REMARK   12  A    between atoms: _33  and  _34
REMARK   13  A    between atoms: _33  and  _36
REMARK   14  A    between atoms: _36  and  _37
REMARK   15  A    between atoms: _40  and  _42
REMARK   16  A    between atoms: _42  and  _43
REMARK   17  A    between atoms: _42  and  _45
REMARK   18  A    between atoms: _45  and  _46
REMARK   19  A    between atoms: _49  and  _51
REMARK   20  A    between atoms: _51  and  _52
REMARK   21  A    between atoms: _51  and  _54
REMARK   22  A    between atoms: _54  and  _55
REMARK   23  A    between atoms: _58  and  _60
REMARK   24  A    between atoms: _60  and  _61
REMARK   25  A    between atoms: _60  and  _63
REMARK   26  A    between atoms: _63  and  _64
REMARK   27  A    between atoms: _67  and  _69
REMARK   28  A    between atoms: _69  and  _70
REMARK   29  A    between atoms: _69  and  _72
REMARK   30  A    between atoms: _72  and  _73
REMARK   31  A    between atoms: _76  and  _78
REMARK   32  A    between atoms: _78  and  _79
REMARK   33  A    between atoms: _81  and  _83
REMARK   34  A    between atoms: _83  and  _84
REMARK   35  A    between atoms: _83  and  _86
REMARK   36  A    between atoms: _86  and  _87
REMARK   37  A    between atoms: _91  and  _92
REMARK   38  A    between atoms: _97  and  _99
REMARK   39  A    between atoms: _99  and  _100
REMARK   40  A    between atoms: _99  and  _102
REMARK   41  A    between atoms: _102  and  _103
REMARK   42  A    between atoms: _105  and  _107
REMARK   43  A    between atoms: _107  and  _108
REMARK   44  A    between atoms: _107  and  _110
REMARK   45  A    between atoms: _110  and  _111
REMARK   46  A    between atoms: _114  and  _116
REMARK   47  A    between atoms: _116  and  _117
REMARK   48  A    between atoms: _116  and  _119
REMARK   49  A    between atoms: _119  and  _120
REMARK   50  A    between atoms: _125  and  _126
REMARK   51  A    between atoms: _128  and  _130
REMARK   52  A    between atoms: _130  and  _131
REMARK   53  A    between atoms: _130  and  _133
REMARK   54  A    between atoms: _133  and  _134
REMARK   55  A    between atoms: _136  and  _138
REMARK   56  A    between atoms: _138  and  _139
REMARK   57  A    between atoms: _138  and  _141
REMARK   58  A    between atoms: _141  and  _142
REMARK   59  A    between atoms: _145  and  _147
REMARK   60  A    between atoms: _147  and  _148
REMARK   61  A    between atoms: _147  and  _150
REMARK   62  A    between atoms: _150  and  _151
REMARK   63  A    between atoms: _157  and  _159
REMARK   64  A    between atoms: _159  and  _160
REMARK   65  A    between atoms: _162  and  _164
REMARK   66  A    between atoms: _164  and  _165
REMARK   67  A    between atoms: _164  and  _167
REMARK   68  A    between atoms: _170  and  _172
REMARK   69  A    between atoms: _172  and  _173
REMARK   70  A    between atoms: _172  and  _175
REMARK   71  A    between atoms: _175  and  _176
REMARK   72  A    between atoms: _179  and  _181
REMARK   73  A    between atoms: _181  and  _182
REMARK   74  A    between atoms: _181  and  _184
REMARK   75  A    between atoms: _184  and  _185
REMARK   76  A    between atoms: _187  and  _189
REMARK   77  A    between atoms: _189  and  _190
REMARK   78  A    between atoms: _189  and  _192
REMARK   79  A    between atoms: _192  and  _193
REMARK   80  A    between atoms: _199  and  _201
REMARK   81  A    between atoms: _201  and  _202
REMARK   82  A    between atoms: _201  and  _204
REMARK   83  A    between atoms: _204  and  _205
REMARK   84  A    between atoms: _208  and  _210
REMARK   85  A    between atoms: _210  and  _211
REMARK   86  A    between atoms: _214  and  _216
REMARK   87  A    between atoms: _216  and  _217
REMARK   88  A    between atoms: _216  and  _219
REMARK   89  A    between atoms: _221  and  _223
REMARK   90  A    between atoms: _223  and  _224
REMARK   91  A    between atoms: _223  and  _226
REMARK   92  A    between atoms: _226  and  _227
REMARK   93  A    between atoms: _230  and  _232
REMARK   94  A    between atoms: _232  and  _233
REMARK   95  A    between atoms: _232  and  _235
REMARK   96  A    between atoms: _239  and  _240
REMARK   97  A    between atoms: _245  and  _247
REMARK   98  A    between atoms: _247  and  _248
REMARK   99  A    between atoms: _247  and  _250
REMARK  100  A    between atoms: _253  and  _255
REMARK  101  A    between atoms: _255  and  _256
REMARK  102  A    between atoms: _255  and  _258
REMARK  103  A    between atoms: _258  and  _259
REMARK  104  A    between atoms: _262  and  _264
REMARK  105  A    between atoms: _264  and  _265
REMARK  106  A    between atoms: _264  and  _267
REMARK  107  A    between atoms: _267  and  _268
REMARK  108  A    between atoms: _268  and  _269
REMARK  109  A    between atoms: _271  and  _273
REMARK  110  A    between atoms: _273  and  _274
REMARK  111  A    between atoms: _273  and  _276
REMARK  112  A    between atoms: _276  and  _277
REMARK  113  A    between atoms: _277  and  _278
REMARK  114  A    between atoms: _278  and  _279
REMARK  115  A    between atoms: _279  and  _280
REMARK  116  A    between atoms: _284  and  _286
REMARK  117  A    between atoms: _286  and  _287
REMARK  118  A    between atoms: _286  and  _289
REMARK  119  A    between atoms: _289  and  _290
REMARK  120  A    between atoms: _293  and  _295
REMARK  121  A    between atoms: _295  and  _296
REMARK  122  A    between atoms: _295  and  _298
REMARK  123  A    between atoms: _298  and  _299
REMARK  124  A    between atoms: _301  and  _303
REMARK  125  A    between atoms: _303  and  _304
REMARK  126  A    between atoms: _303  and  _306
REMARK  127  A    between atoms: _306  and  _307
REMARK  128  A    between atoms: _307  and  _308
REMARK  129  A    between atoms: _308  and  _309
REMARK  130  A    between atoms: _318  and  _320
REMARK  131  A    between atoms: _320  and  _321
REMARK  132  A    between atoms: _320  and  _323
REMARK  133  A    between atoms: _323  and  _324
REMARK  134  A    between atoms: _329  and  _331
REMARK  135  A    between atoms: _331  and  _332
REMARK  136  A    between atoms: _331  and  _334
REMARK  137  A    between atoms: _334  and  _335
REMARK  138  A    between atoms: _337  and  _339
REMARK  139  A    between atoms: _339  and  _340
REMARK  140  A    between atoms: _339  and  _342
REMARK  141  A    between atoms: _345  and  _347
REMARK  142  A    between atoms: _347  and  _348
REMARK  143  A    between atoms: _351  and  _353
REMARK  144  A    between atoms: _353  and  _354
REMARK  145  A    between atoms: _353  and  _356
REMARK  146  A    between atoms: _356  and  _357
REMARK  147  A    between atoms: _362  and  _364
REMARK  148  A    between atoms: _364  and  _365
REMARK  149  A    between atoms: _364  and  _367
REMARK  150  A    between atoms: _369  and  _371
REMARK  151  A    between atoms: _371  and  _372
REMARK  152  A    between atoms: _371  and  _374
REMARK  153  A    between atoms: _374  and  _375
REMARK  154  A    between atoms: _377  and  _379
REMARK  155  A    between atoms: _379  and  _380
REMARK  156  A    between atoms: _379  and  _382
REMARK  157  A    between atoms: _382  and  _383
REMARK  158  A    between atoms: _383  and  _384
REMARK  159  A    between atoms: _386  and  _388
REMARK  160  A    between atoms: _388  and  _389
REMARK  161  A    between atoms: _388  and  _391
REMARK  162  A    between atoms: _391  and  _392
REMARK  163  A    between atoms: _392  and  _393
REMARK  164  A    between atoms: _396  and  _398
REMARK  165  A    between atoms: _398  and  _399
REMARK  166  A    between atoms: _398  and  _401
REMARK  167  A    between atoms: _404  and  _406
REMARK  168  A    between atoms: _406  and  _407
REMARK  169  A    between atoms: _409  and  _411
REMARK  170  A    between atoms: _411  and  _412
REMARK  171  A    between atoms: _414  and  _416
REMARK  172  A    between atoms: _416  and  _417
REMARK  173  A    between atoms: _416  and  _419
REMARK  174  A    between atoms: _419  and  _420
REMARK  175  A    between atoms: _425  and  _426
REMARK  176  A    between atoms: _428  and  _430
REMARK  177  A    between atoms: _430  and  _431
REMARK  178  A    between atoms: _430  and  _433
REMARK  179  A    between atoms: _433  and  _434
REMARK  180  A    between atoms: _437  and  _439
REMARK  181  A    between atoms: _439  and  _440
REMARK  182  A    between atoms: _443  and  _445
REMARK  183  A    between atoms: _445  and  _446
REMARK  184  A    between atoms: _445  and  _448
REMARK  185  A    between atoms: _448  and  _449
REMARK  186  A    between atoms: _452  and  _454
REMARK  187  A    between atoms: _454  and  _455
REMARK  188  A    between atoms: _454  and  _457
REMARK  189  A    between atoms: _457  and  _458
REMARK  190  A    between atoms: _461  and  _463
REMARK  191  A    between atoms: _463  and  _464
REMARK  192  A    between atoms: _463  and  _466
REMARK  193  A    between atoms: _466  and  _467
REMARK  194  A    between atoms: _470  and  _472
REMARK  195  A    between atoms: _472  and  _473
REMARK  196  A    between atoms: _472  and  _475
REMARK  197  A    between atoms: _478  and  _480
REMARK  198  A    between atoms: _480  and  _481
REMARK                            x       y       z     vdW  Elec       q    Type
REMARK                         _______ _______ _______ _____ _____    ______ ____
ROOT
ATOM      1  CA  VAL A   1     -23.404  27.680   3.154  0.00  0.00    +0.133 C 
ENDROOT
BRANCH   1   2
ATOM      2  CB  VAL A   1     -23.946  27.628   1.669  0.00  0.00    +0.023 C 
ATOM      3  CG2 VAL A   1     -25.034  28.733   1.390  0.00  0.00    +0.002 C 
ATOM      4  CG1 VAL A   1     -24.434  26.250   1.300  0.00  0.00    +0.002 C 
ENDBRANCH   1   2
BRANCH   1   5
ATOM      5  N   VAL A   1     -24.423  28.088   4.125  0.00  0.00    -0.239 NA
ATOM      6  H   VAL A   1     -24.597  29.105   4.253  0.00  0.00    +0.142 HD
ENDBRANCH   1   5
BRANCH   1   7
ATOM      7  C   VAL A   1     -22.258  28.683   3.173  0.00  0.00    +0.224 C 
ATOM      8  O   VAL A   1     -22.469  29.890   3.373  0.00  0.00    -0.287 OA
ENDBRANCH   1   7
TORSDOF 3
REMARK  Name = ../refined-set-2016/2qbu/2qbu_pocket.pdb
REMARK  198 active torsions:
REMARK  status: ('A' for Active; 'I' for Inactive)
REMARK    1  A    between atoms: _1  and  _3
REMARK    2  A    between atoms: _3  and  _4
REMARK    3  A    between atoms: _6  and  _8
REMARK    4  A    between atoms: _8  and  _9
REMARK    5  A    between atoms: _8  and  _11
REMARK    6  A    between atoms: _14  and  _16
REMARK    7  A    between atoms: _16  and  _17
REMARK    8  A    between atoms: _20  and  _21
REMARK    9  A    between atoms: _26  and  _28
REMARK   10  A    between atoms: _28  and  _29
REMARK   11  A    between atoms: _31  and  _33
REMARK   12  A    between atoms: _33  and  _34
REMARK   13  A    between atoms: _33  and  _36
REMARK   14  A    between atoms: _36  and  _37
REMARK   15  A    between atoms: _40  and  _42
REMARK   16  A    between atoms: _42  and  _43
REMARK   17  A    between atoms: _42  and  _45
REMARK   18  A    between atoms: _45  and  _46
REMARK   19  A    between atoms: _49  and  _51
REMARK   20  A    between atoms: _51  and  _52
REMARK   21  A    between atoms: _51  and  _54
REMARK   22  A    between atoms: _54  and  _55
REMARK   23  A    between atoms: _58  and  _60
REMARK   24  A    between atoms: _60  and  _61
REMARK   25  A    between atoms: _60  and  _63
REMARK   26  A    between atoms: _63  and  _64
REMARK   27  A    between atoms: _67  and  _69
REMARK   28  A    between atoms: _69  and  _70
REMARK   29  A    between atoms: _69  and  _72
REMARK   30  A    between atoms: _72  and  _73
REMARK   31  A    between atoms: _76  and  _78
REMARK   32  A    between atoms: _78  and  _79
REMARK   33  A    between atoms: _81  and  _83
REMARK   34  A    between atoms: _83  and  _84
REMARK   35  A    between atoms: _83  and  _86
REMARK   36  A    between atoms: _86  and  _87
REMARK   37  A    between atoms: _91  and  _92
REMARK   38  A    between atoms: _97  and  _99
REMARK   39  A    between atoms: _99  and  _100
REMARK   40  A    between atoms: _99  and  _102
REMARK   41  A    between atoms: _102  and  _103
REMARK   42  A    between atoms: _105  and  _107
REMARK   43  A    between atoms: _107  and  _108
REMARK   44  A    between atoms: _107  and  _110
REMARK   45  A    between atoms: _110  and  _111
REMARK   46  A    between atoms: _114  and  _116
REMARK   47  A    between atoms: _116  and  _117
REMARK   48  A    between atoms: _116  and  _119
REMARK   49  A    between atoms: _119  and  _120
REMARK   50  A    between atoms: _125  and  _126
REMARK   51  A    between atoms: _128  and  _130
REMARK   52  A    between atoms: _130  and  _131
REMARK   53  A    between atoms: _130  and  _133
REMARK   54  A    between atoms: _133  and  _134
REMARK   55  A    between atoms: _136  and  _138
REMARK   56  A    between atoms: _138  and  _139
REMARK   57  A    between atoms: _138  and  _141
REMARK   58  A    between atoms: _141  and  _142
REMARK   59  A    between atoms: _145  and  _147
REMARK   60  A    between atoms: _147  and  _148
REMARK   61  A    between atoms: _147  and  _150
REMARK   62  A    between atoms: _150  and  _151
REMARK   63  A    between atoms: _157  and  _159
REMARK   64  A    between atoms: _159  and  _160
REMARK   65  A    between atoms: _162  and  _164
REMARK   66  A    between atoms: _164  and  _165
REMARK   67  A    between atoms: _164  and  _167
REMARK   68  A    between atoms: _170  and  _172
REMARK   69  A    between atoms: _172  and  _173
REMARK   70  A    between atoms: _172  and  _175
REMARK   71  A    between atoms: _175  and  _176
REMARK   72  A    between atoms: _179  and  _181
REMARK   73  A    between atoms: _181  and  _182
REMARK   74  A    between atoms: _181  and  _184
REMARK   75  A    between atoms: _184  and  _185
REMARK   76  A    between atoms: _187  and  _189
REMARK   77  A    between atoms: _189  and  _190
REMARK   78  A    between atoms: _189  and  _192
REMARK   79  A    between atoms: _192  and  _193
REMARK   80  A    between atoms: _199  and  _201
REMARK   81  A    between atoms: _201  and  _202
REMARK   82  A    between atoms: _201  and  _204
REMARK   83  A    between atoms: _204  and  _205
REMARK   84  A    between atoms: _208  and  _210
REMARK   85  A    between atoms: _210  and  _211
REMARK   86  A    between atoms: _214  and  _216
REMARK   87  A    between atoms: _216  and  _217
REMARK   88  A    between atoms: _216  and  _219
REMARK   89  A    between atoms: _221  and  _223
REMARK   90  A    between atoms: _223  and  _224
REMARK   91  A    between atoms: _223  and  _226
REMARK   92  A    between atoms: _226  and  _227
REMARK   93  A    between atoms: _230  and  _232
REMARK   94  A    between atoms: _232  and  _233
REMARK   95  A    between atoms: _232  and  _235
REMARK   96  A    between atoms: _239  and  _240
REMARK   97  A    between atoms: _245  and  _247
REMARK   98  A    between atoms: _247  and  _248
REMARK   99  A    between atoms: _247  and  _250
REMARK  100  A    between atoms: _253  and  _255
REMARK  101  A    between atoms: _255  and  _256
REMARK  102  A    between atoms: _255  and  _258
REMARK  103  A    between atoms: _258  and  _259
REMARK  104  A    between atoms: _262  and  _264
REMARK  105  A    between atoms: _264  and  _265
REMARK  106  A    between atoms: _264  and  _267
REMARK  107  A    between atoms: _267  and  _268
REMARK  108  A    between atoms: _268  and  _269
REMARK  109  A    between atoms: _271  and  _273
REMARK  110  A    between atoms: _273  and  _274
REMARK  111  A    between atoms: _273  and  _276
REMARK  112  A    between atoms: _276  and  _277
REMARK  113  A    between atoms: _277  and  _278
REMARK  114  A    between atoms: _278  and  _279
REMARK  115  A    between atoms: _279  and  _280
REMARK  116  A    between atoms: _284  and  _286
REMARK  117  A    between atoms: _286  and  _287
REMARK  118  A    between atoms: _286  and  _289
REMARK  119  A    between atoms: _289  and  _290
REMARK  120  A    between atoms: _293  and  _295
REMARK  121  A    between atoms: _295  and  _296
REMARK  122  A    between atoms: _295  and  _298
REMARK  123  A    between atoms: _298  and  _299
REMARK  124  A    between atoms: _301  and  _303
REMARK  125  A    between atoms: _303  and  _304
REMARK  126  A    between atoms: _303  and  _306
REMARK  127  A    between atoms: _306  and  _307
REMARK  128  A    between atoms: _307  and  _308
REMARK  129  A    between atoms: _308  and  _309
REMARK  130  A    between atoms: _318  and  _320
REMARK  131  A    between atoms: _320  and  _321
REMARK  132  A    between atoms: _320  and  _323
REMARK  133  A    between atoms: _323  and  _324
REMARK  134  A    between atoms: _329  and  _331
REMARK  135  A    between atoms: _331  and  _332
REMARK  136  A    between atoms: _331  and  _334
REMARK  137  A    between atoms: _334  and  _335
REMARK  138  A    between atoms: _337  and  _339
REMARK  139  A    between atoms: _339  and  _340
REMARK  140  A    between atoms: _339  and  _342
REMARK  141  A    between atoms: _345  and  _347
REMARK  142  A    between atoms: _347  and  _348
REMARK  143  A    between atoms: _351  and  _353
REMARK  144  A    between atoms: _353  and  _354
REMARK  145  A    between atoms: _353  and  _356
REMARK  146  A    between atoms: _356  and  _357
REMARK  147  A    between atoms: _362  and  _364
REMARK  148  A    between atoms: _364  and  _365
REMARK  149  A    between atoms: _364  and  _367
REMARK  150  A    between atoms: _369  and  _371
REMARK  151  A    between atoms: _371  and  _372
REMARK  152  A    between atoms: _371  and  _374
REMARK  153  A    between atoms: _374  and  _375
REMARK  154  A    between atoms: _377  and  _379
REMARK  155  A    between atoms: _379  and  _380
REMARK  156  A    between atoms: _379  and  _382
REMARK  157  A    between atoms: _382  and  _383
REMARK  158  A    between atoms: _383  and  _384
REMARK  159  A    between atoms: _386  and  _388
REMARK  160  A    between atoms: _388  and  _389
REMARK  161  A    between atoms: _388  and  _391
REMARK  162  A    between atoms: _391  and  _392
REMARK  163  A    between atoms: _392  and  _393
REMARK  164  A    between atoms: _396  and  _398
REMARK  165  A    between atoms: _398  and  _399
REMARK  166  A    between atoms: _398  and  _401
REMARK  167  A    between atoms: _404  and  _406
REMARK  168  A    between atoms: _406  and  _407
REMARK  169  A    between atoms: _409  and  _411
REMARK  170  A    between atoms: _411  and  _412
REMARK  171  A    between atoms: _414  and  _416
REMARK  172  A    between atoms: _416  and  _417
REMARK  173  A    between atoms: _416  and  _419
REMARK  174  A    between atoms: _419  and  _420
REMARK  175  A    between atoms: _425  and  _426
REMARK  176  A    between atoms: _428  and  _430
REMARK  177  A    between atoms: _430  and  _431
REMARK  178  A    between atoms: _430  and  _433
REMARK  179  A    between atoms: _433  and  _434
REMARK  180  A    between atoms: _437  and  _439
REMARK  181  A    between atoms: _439  and  _440
REMARK  182  A    between atoms: _443  and  _445
REMARK  183  A    between atoms: _445  and  _446
REMARK  184  A    between atoms: _445  and  _448
REMARK  185  A    between atoms: _448  and  _449
REMARK  186  A    between atoms: _452  and  _454
REMARK  187  A    between atoms: _454  and  _455
REMARK  188  A    between atoms: _454  and  _457
REMARK  189  A    between atoms: _457  and  _458
REMARK  190  A    between atoms: _461  and  _463
REMARK  191  A    between atoms: _463  and  _464
REMARK  192  A    between atoms: _463  and  _466
REMARK  193  A    between atoms: _466  and  _467
REMARK  194  A    between atoms: _470  and  _472
REMARK  195  A    between atoms: _472  and  _473
REMARK  196  A    between atoms: _472  and  _475
REMARK  197  A    between atoms: _478  and  _480
REMARK  198  A    between atoms: _480  and  _481
REMARK                            x       y       z     vdW  Elec       q    Type
REMARK                         _______ _______ _______ _____ _____    ______ ____
ROOT
ATOM      1  CA  GLY A   1     -17.021  28.879   0.331  0.00  0.00    +0.156 C 
ENDROOT
BRANCH   1   2
ATOM      2  N   GLY A   1     -18.009  29.293   1.329  0.00  0.00    -0.238 NA
ATOM      3  H   GLY A   1     -17.948  30.253   1.725  0.00  0.00    +0.142 HD
ENDBRANCH   1   2
BRANCH   1   4
ATOM      4  C   GLY A   1     -17.628  28.172  -0.860  0.00  0.00    +0.226 C 
ATOM      5  O   GLY A   1     -18.456  28.742  -1.578  0.00  0.00    -0.287 OA
ENDBRANCH   1   4
TORSDOF 2
REMARK  Name = ../refined-set-2016/2qbu/2qbu_pocket.pdb
REMARK  198 active torsions:
REMARK  status: ('A' for Active; 'I' for Inactive)
REMARK    1  A    between atoms: _1  and  _3
REMARK    2  A    between atoms: _3  and  _4
REMARK    3  A    between atoms: _6  and  _8
REMARK    4  A    between atoms: _8  and  _9
REMARK    5  A    between atoms: _8  and  _11
REMARK    6  A    between atoms: _14  and  _16
REMARK    7  A    between atoms: _16  and  _17
REMARK    8  A    between atoms: _20  and  _21
REMARK    9  A    between atoms: _26  and  _28
REMARK   10  A    between atoms: _28  and  _29
REMARK   11  A    between atoms: _31  and  _33
REMARK   12  A    between atoms: _33  and  _34
REMARK   13  A    between atoms: _33  and  _36
REMARK   14  A    between atoms: _36  and  _37
REMARK   15  A    between atoms: _40  and  _42
REMARK   16  A    between atoms: _42  and  _43
REMARK   17  A    between atoms: _42  and  _45
REMARK   18  A    between atoms: _45  and  _46
REMARK   19  A    between atoms: _49  and  _51
REMARK   20  A    between atoms: _51  and  _52
REMARK   21  A    between atoms: _51  and  _54
REMARK   22  A    between atoms: _54  and  _55
REMARK   23  A    between atoms: _58  and  _60
REMARK   24  A    between atoms: _60  and  _61
REMARK   25  A    between atoms: _60  and  _63
REMARK   26  A    between atoms: _63  and  _64
REMARK   27  A    between atoms: _67  and  _69
REMARK   28  A    between atoms: _69  and  _70
REMARK   29  A    between atoms: _69  and  _72
REMARK   30  A    between atoms: _72  and  _73
REMARK   31  A    between atoms: _76  and  _78
REMARK   32  A    between atoms: _78  and  _79
REMARK   33  A    between atoms: _81  and  _83
REMARK   34  A    between atoms: _83  and  _84
REMARK   35  A    between atoms: _83  and  _86
REMARK   36  A    between atoms: _86  and  _87
REMARK   37  A    between atoms: _91  and  _92
REMARK   38  A    between atoms: _97  and  _99
REMARK   39  A    between atoms: _99  and  _100
REMARK   40  A    between atoms: _99  and  _102
REMARK   41  A    between atoms: _102  and  _103
REMARK   42  A    between atoms: _105  and  _107
REMARK   43  A    between atoms: _107  and  _108
REMARK   44  A    between atoms: _107  and  _110
REMARK   45  A    between atoms: _110  and  _111
REMARK   46  A    between atoms: _114  and  _116
REMARK   47  A    between atoms: _116  and  _117
REMARK   48  A    between atoms: _116  and  _119
REMARK   49  A    between atoms: _119  and  _120
REMARK   50  A    between atoms: _125  and  _126
REMARK   51  A    between atoms: _128  and  _130
REMARK   52  A    between atoms: _130  and  _131
REMARK   53  A    between atoms: _130  and  _133
REMARK   54  A    between atoms: _133  and  _134
REMARK   55  A    between atoms: _136  and  _138
REMARK   56  A    between atoms: _138  and  _139
REMARK   57  A    between atoms: _138  and  _141
REMARK   58  A    between atoms: _141  and  _142
REMARK   59  A    between atoms: _145  and  _147
REMARK   60  A    between atoms: _147  and  _148
REMARK   61  A    between atoms: _147  and  _150
REMARK   62  A    between atoms: _150  and  _151
REMARK   63  A    between atoms: _157  and  _159
REMARK   64  A    between atoms: _159  and  _160
REMARK   65  A    between atoms: _162  and  _164
REMARK   66  A    between atoms: _164  and  _165
REMARK   67  A    between atoms: _164  and  _167
REMARK   68  A    between atoms: _170  and  _172
REMARK   69  A    between atoms: _172  and  _173
REMARK   70  A    between atoms: _172  and  _175
REMARK   71  A    between atoms: _175  and  _176
REMARK   72  A    between atoms: _179  and  _181
REMARK   73  A    between atoms: _181  and  _182
REMARK   74  A    between atoms: _181  and  _184
REMARK   75  A    between atoms: _184  and  _185
REMARK   76  A    between atoms: _187  and  _189
REMARK   77  A    between atoms: _189  and  _190
REMARK   78  A    between atoms: _189  and  _192
REMARK   79  A    between atoms: _192  and  _193
REMARK   80  A    between atoms: _199  and  _201
REMARK   81  A    between atoms: _201  and  _202
REMARK   82  A    between atoms: _201  and  _204
REMARK   83  A    between atoms: _204  and  _205
REMARK   84  A    between atoms: _208  and  _210
REMARK   85  A    between atoms: _210  and  _211
REMARK   86  A    between atoms: _214  and  _216
REMARK   87  A    between atoms: _216  and  _217
REMARK   88  A    between atoms: _216  and  _219
REMARK   89  A    between atoms: _221  and  _223
REMARK   90  A    between atoms: _223  and  _224
REMARK   91  A    between atoms: _223  and  _226
REMARK   92  A    between atoms: _226  and  _227
REMARK   93  A    between atoms: _230  and  _232
REMARK   94  A    between atoms: _232  and  _233
REMARK   95  A    between atoms: _232  and  _235
REMARK   96  A    between atoms: _239  and  _240
REMARK   97  A    between atoms: _245  and  _247
REMARK   98  A    between atoms: _247  and  _248
REMARK   99  A    between atoms: _247  and  _250
REMARK  100  A    between atoms: _253  and  _255
REMARK  101  A    between atoms: _255  and  _256
REMARK  102  A    between atoms: _255  and  _258
REMARK  103  A    between atoms: _258  and  _259
REMARK  104  A    between atoms: _262  and  _264
REMARK  105  A    between atoms: _264  and  _265
REMARK  106  A    between atoms: _264  and  _267
REMARK  107  A    between atoms: _267  and  _268
REMARK  108  A    between atoms: _268  and  _269
REMARK  109  A    between atoms: _271  and  _273
REMARK  110  A    between atoms: _273  and  _274
REMARK  111  A    between atoms: _273  and  _276
REMARK  112  A    between atoms: _276  and  _277
REMARK  113  A    between atoms: _277  and  _278
REMARK  114  A    between atoms: _278  and  _279
REMARK  115  A    between atoms: _279  and  _280
REMARK  116  A    between atoms: _284  and  _286
REMARK  117  A    between atoms: _286  and  _287
REMARK  118  A    between atoms: _286  and  _289
REMARK  119  A    between atoms: _289  and  _290
REMARK  120  A    between atoms: _293  and  _295
REMARK  121  A    between atoms: _295  and  _296
REMARK  122  A    between atoms: _295  and  _298
REMARK  123  A    between atoms: _298  and  _299
REMARK  124  A    between atoms: _301  and  _303
REMARK  125  A    between atoms: _303  and  _304
REMARK  126  A    between atoms: _303  and  _306
REMARK  127  A    between atoms: _306  and  _307
REMARK  128  A    between atoms: _307  and  _308
REMARK  129  A    between atoms: _308  and  _309
REMARK  130  A    between atoms: _318  and  _320
REMARK  131  A    between atoms: _320  and  _321
REMARK  132  A    between atoms: _320  and  _323
REMARK  133  A    between atoms: _323  and  _324
REMARK  134  A    between atoms: _329  and  _331
REMARK  135  A    between atoms: _331  and  _332
REMARK  136  A    between atoms: _331  and  _334
REMARK  137  A    between atoms: _334  and  _335
REMARK  138  A    between atoms: _337  and  _339
REMARK  139  A    between atoms: _339  and  _340
REMARK  140  A    between atoms: _339  and  _342
REMARK  141  A    between atoms: _345  and  _347
REMARK  142  A    between atoms: _347  and  _348
REMARK  143  A    between atoms: _351  and  _353
REMARK  144  A    between atoms: _353  and  _354
REMARK  145  A    between atoms: _353  and  _356
REMARK  146  A    between atoms: _356  and  _357
REMARK  147  A    between atoms: _362  and  _364
REMARK  148  A    between atoms: _364  and  _365
REMARK  149  A    between atoms: _364  and  _367
REMARK  150  A    between atoms: _369  and  _371
REMARK  151  A    between atoms: _371  and  _372
REMARK  152  A    between atoms: _371  and  _374
REMARK  153  A    between atoms: _374  and  _375
REMARK  154  A    between atoms: _377  and  _379
REMARK  155  A    between atoms: _379  and  _380
REMARK  156  A    between atoms: _379  and  _382
REMARK  157  A    between atoms: _382  and  _383
REMARK  158  A    between atoms: _383  and  _384
REMARK  159  A    between atoms: _386  and  _388
REMARK  160  A    between atoms: _388  and  _389
REMARK  161  A    between atoms: _388  and  _391
REMARK  162  A    between atoms: _391  and  _392
REMARK  163  A    between atoms: _392  and  _393
REMARK  164  A    between atoms: _396  and  _398
REMARK  165  A    between atoms: _398  and  _399
REMARK  166  A    between atoms: _398  and  _401
REMARK  167  A    between atoms: _404  and  _406
REMARK  168  A    between atoms: _406  and  _407
REMARK  169  A    between atoms: _409  and  _411
REMARK  170  A    between atoms: _411  and  _412
REMARK  171  A    between atoms: _414  and  _416
REMARK  172  A    between atoms: _416  and  _417
REMARK  173  A    between atoms: _416  and  _419
REMARK  174  A    between atoms: _419  and  _420
REMARK  175  A    between atoms: _425  and  _426
REMARK  176  A    between atoms: _428  and  _430
REMARK  177  A    between atoms: _430  and  _431
REMARK  178  A    between atoms: _430  and  _433
REMARK  179  A    between atoms: _433  and  _434
REMARK  180  A    between atoms: _437  and  _439
REMARK  181  A    between atoms: _439  and  _440
REMARK  182  A    between atoms: _443  and  _445
REMARK  183  A    between atoms: _445  and  _446
REMARK  184  A    between atoms: _445  and  _448
REMARK  185  A    between atoms: _448  and  _449
REMARK  186  A    between atoms: _452  and  _454
REMARK  187  A    between atoms: _454  and  _455
REMARK  188  A    between atoms: _454  and  _457
REMARK  189  A    between atoms: _457  and  _458
REMARK  190  A    between atoms: _461  and  _463
REMARK  191  A    between atoms: _463  and  _464
REMARK  192  A    between atoms: _463  and  _466
REMARK  193  A    between atoms: _466  and  _467
REMARK  194  A    between atoms: _470  and  _472
REMARK  195  A    between atoms: _472  and  _473
REMARK  196  A    between atoms: _472  and  _475
REMARK  197  A    between atoms: _478  and  _480
REMARK  198  A    between atoms: _480  and  _481
REMARK                            x       y       z     vdW  Elec       q    Type
REMARK                         _______ _______ _______ _____ _____    ______ ____
ROOT
ATOM      1  O   HOH     1     -28.985  46.656   0.423  0.00  0.00    +0.000 OA
ENDROOT
TORSDOF 0
REMARK  Name = ../refined-set-2016/2qbu/2qbu_pocket.pdb
REMARK  198 active torsions:
REMARK  status: ('A' for Active; 'I' for Inactive)
REMARK    1  A    between atoms: _1  and  _3
REMARK    2  A    between atoms: _3  and  _4
REMARK    3  A    between atoms: _6  and  _8
REMARK    4  A    between atoms: _8  and  _9
REMARK    5  A    between atoms: _8  and  _11
REMARK    6  A    between atoms: _14  and  _16
REMARK    7  A    between atoms: _16  and  _17
REMARK    8  A    between atoms: _20  and  _21
REMARK    9  A    between atoms: _26  and  _28
REMARK   10  A    between atoms: _28  and  _29
REMARK   11  A    between atoms: _31  and  _33
REMARK   12  A    between atoms: _33  and  _34
REMARK   13  A    between atoms: _33  and  _36
REMARK   14  A    between atoms: _36  and  _37
REMARK   15  A    between atoms: _40  and  _42
REMARK   16  A    between atoms: _42  and  _43
REMARK   17  A    between atoms: _42  and  _45
REMARK   18  A    between atoms: _45  and  _46
REMARK   19  A    between atoms: _49  and  _51
REMARK   20  A    between atoms: _51  and  _52
REMARK   21  A    between atoms: _51  and  _54
REMARK   22  A    between atoms: _54  and  _55
REMARK   23  A    between atoms: _58  and  _60
REMARK   24  A    between atoms: _60  and  _61
REMARK   25  A    between atoms: _60  and  _63
REMARK   26  A    between atoms: _63  and  _64
REMARK   27  A    between atoms: _67  and  _69
REMARK   28  A    between atoms: _69  and  _70
REMARK   29  A    between atoms: _69  and  _72
REMARK   30  A    between atoms: _72  and  _73
REMARK   31  A    between atoms: _76  and  _78
REMARK   32  A    between atoms: _78  and  _79
REMARK   33  A    between atoms: _81  and  _83
REMARK   34  A    between atoms: _83  and  _84
REMARK   35  A    between atoms: _83  and  _86
REMARK   36  A    between atoms: _86  and  _87
REMARK   37  A    between atoms: _91  and  _92
REMARK   38  A    between atoms: _97  and  _99
REMARK   39  A    between atoms: _99  and  _100
REMARK   40  A    between atoms: _99  and  _102
REMARK   41  A    between atoms: _102  and  _103
REMARK   42  A    between atoms: _105  and  _107
REMARK   43  A    between atoms: _107  and  _108
REMARK   44  A    between atoms: _107  and  _110
REMARK   45  A    between atoms: _110  and  _111
REMARK   46  A    between atoms: _114  and  _116
REMARK   47  A    between atoms: _116  and  _117
REMARK   48  A    between atoms: _116  and  _119
REMARK   49  A    between atoms: _119  and  _120
REMARK   50  A    between atoms: _125  and  _126
REMARK   51  A    between atoms: _128  and  _130
REMARK   52  A    between atoms: _130  and  _131
REMARK   53  A    between atoms: _130  and  _133
REMARK   54  A    between atoms: _133  and  _134
REMARK   55  A    between atoms: _136  and  _138
REMARK   56  A    between atoms: _138  and  _139
REMARK   57  A    between atoms: _138  and  _141
REMARK   58  A    between atoms: _141  and  _142
REMARK   59  A    between atoms: _145  and  _147
REMARK   60  A    between atoms: _147  and  _148
REMARK   61  A    between atoms: _147  and  _150
REMARK   62  A    between atoms: _150  and  _151
REMARK   63  A    between atoms: _157  and  _159
REMARK   64  A    between atoms: _159  and  _160
REMARK   65  A    between atoms: _162  and  _164
REMARK   66  A    between atoms: _164  and  _165
REMARK   67  A    between atoms: _164  and  _167
REMARK   68  A    between atoms: _170  and  _172
REMARK   69  A    between atoms: _172  and  _173
REMARK   70  A    between atoms: _172  and  _175
REMARK   71  A    between atoms: _175  and  _176
REMARK   72  A    between atoms: _179  and  _181
REMARK   73  A    between atoms: _181  and  _182
REMARK   74  A    between atoms: _181  and  _184
REMARK   75  A    between atoms: _184  and  _185
REMARK   76  A    between atoms: _187  and  _189
REMARK   77  A    between atoms: _189  and  _190
REMARK   78  A    between atoms: _189  and  _192
REMARK   79  A    between atoms: _192  and  _193
REMARK   80  A    between atoms: _199  and  _201
REMARK   81  A    between atoms: _201  and  _202
REMARK   82  A    between atoms: _201  and  _204
REMARK   83  A    between atoms: _204  and  _205
REMARK   84  A    between atoms: _208  and  _210
REMARK   85  A    between atoms: _210  and  _211
REMARK   86  A    between atoms: _214  and  _216
REMARK   87  A    between atoms: _216  and  _217
REMARK   88  A    between atoms: _216  and  _219
REMARK   89  A    between atoms: _221  and  _223
REMARK   90  A    between atoms: _223  and  _224
REMARK   91  A    between atoms: _223  and  _226
REMARK   92  A    between atoms: _226  and  _227
REMARK   93  A    between atoms: _230  and  _232
REMARK   94  A    between atoms: _232  and  _233
REMARK   95  A    between atoms: _232  and  _235
REMARK   96  A    between atoms: _239  and  _240
REMARK   97  A    between atoms: _245  and  _247
REMARK   98  A    between atoms: _247  and  _248
REMARK   99  A    between atoms: _247  and  _250
REMARK  100  A    between atoms: _253  and  _255
REMARK  101  A    between atoms: _255  and  _256
REMARK  102  A    between atoms: _255  and  _258
REMARK  103  A    between atoms: _258  and  _259
REMARK  104  A    between atoms: _262  and  _264
REMARK  105  A    between atoms: _264  and  _265
REMARK  106  A    between atoms: _264  and  _267
REMARK  107  A    between atoms: _267  and  _268
REMARK  108  A    between atoms: _268  and  _269
REMARK  109  A    between atoms: _271  and  _273
REMARK  110  A    between atoms: _273  and  _274
REMARK  111  A    between atoms: _273  and  _276
REMARK  112  A    between atoms: _276  and  _277
REMARK  113  A    between atoms: _277  and  _278
REMARK  114  A    between atoms: _278  and  _279
REMARK  115  A    between atoms: _279  and  _280
REMARK  116  A    between atoms: _284  and  _286
REMARK  117  A    between atoms: _286  and  _287
REMARK  118  A    between atoms: _286  and  _289
REMARK  119  A    between atoms: _289  and  _290
REMARK  120  A    between atoms: _293  and  _295
REMARK  121  A    between atoms: _295  and  _296
REMARK  122  A    between atoms: _295  and  _298
REMARK  123  A    between atoms: _298  and  _299
REMARK  124  A    between atoms: _301  and  _303
REMARK  125  A    between atoms: _303  and  _304
REMARK  126  A    between atoms: _303  and  _306
REMARK  127  A    between atoms: _306  and  _307
REMARK  128  A    between atoms: _307  and  _308
REMARK  129  A    between atoms: _308  and  _309
REMARK  130  A    between atoms: _318  and  _320
REMARK  131  A    between atoms: _320  and  _321
REMARK  132  A    between atoms: _320  and  _323
REMARK  133  A    between atoms: _323  and  _324
REMARK  134  A    between atoms: _329  and  _331
REMARK  135  A    between atoms: _331  and  _332
REMARK  136  A    between atoms: _331  and  _334
REMARK  137  A    between atoms: _334  and  _335
REMARK  138  A    between atoms: _337  and  _339
REMARK  139  A    between atoms: _339  and  _340
REMARK  140  A    between atoms: _339  and  _342
REMARK  141  A    between atoms: _345  and  _347
REMARK  142  A    between atoms: _347  and  _348
REMARK  143  A    between atoms: _351  and  _353
REMARK  144  A    between atoms: _353  and  _354
REMARK  145  A    between atoms: _353  and  _356
REMARK  146  A    between atoms: _356  and  _357
REMARK  147  A    between atoms: _362  and  _364
REMARK  148  A    between atoms: _364  and  _365
REMARK  149  A    between atoms: _364  and  _367
REMARK  150  A    between atoms: _369  and  _371
REMARK  151  A    between atoms: _371  and  _372
REMARK  152  A    between atoms: _371  and  _374
REMARK  153  A    between atoms: _374  and  _375
REMARK  154  A    between atoms: _377  and  _379
REMARK  155  A    between atoms: _379  and  _380
REMARK  156  A    between atoms: _379  and  _382
REMARK  157  A    between atoms: _382  and  _383
REMARK  158  A    between atoms: _383  and  _384
REMARK  159  A    between atoms: _386  and  _388
REMARK  160  A    between atoms: _388  and  _389
REMARK  161  A    between atoms: _388  and  _391
REMARK  162  A    between atoms: _391  and  _392
REMARK  163  A    between atoms: _392  and  _393
REMARK  164  A    between atoms: _396  and  _398
REMARK  165  A    between atoms: _398  and  _399
REMARK  166  A    between atoms: _398  and  _401
REMARK  167  A    between atoms: _404  and  _406
REMARK  168  A    between atoms: _406  and  _407
REMARK  169  A    between atoms: _409  and  _411
REMARK  170  A    between atoms: _411  and  _412
REMARK  171  A    between atoms: _414  and  _416
REMARK  172  A    between atoms: _416  and  _417
REMARK  173  A    between atoms: _416  and  _419
REMARK  174  A    between atoms: _419  and  _420
REMARK  175  A    between atoms: _425  and  _426
REMARK  176  A    between atoms: _428  and  _430
REMARK  177  A    between atoms: _430  and  _431
REMARK  178  A    between atoms: _430  and  _433
REMARK  179  A    between atoms: _433  and  _434
REMARK  180  A    between atoms: _437  and  _439
REMARK  181  A    between atoms: _439  and  _440
REMARK  182  A    between atoms: _443  and  _445
REMARK  183  A    between atoms: _445  and  _446
REMARK  184  A    between atoms: _445  and  _448
REMARK  185  A    between atoms: _448  and  _449
REMARK  186  A    between atoms: _452  and  _454
REMARK  187  A    between atoms: _454  and  _455
REMARK  188  A    between atoms: _454  and  _457
REMARK  189  A    between atoms: _457  and  _458
REMARK  190  A    between atoms: _461  and  _463
REMARK  191  A    between atoms: _463  and  _464
REMARK  192  A    between atoms: _463  and  _466
REMARK  193  A    between atoms: _466  and  _467
REMARK  194  A    between atoms: _470  and  _472
REMARK  195  A    between atoms: _472  and  _473
REMARK  196  A    between atoms: _472  and  _475
REMARK  197  A    between atoms: _478  and  _480
REMARK  198  A    between atoms: _480  and  _481
REMARK                            x       y       z     vdW  Elec       q    Type
REMARK                         _______ _______ _______ _____ _____    ______ ____
ROOT
ATOM      1  O   HOH     1     -33.297  36.512   2.774  0.00  0.00    +0.000 OA
ENDROOT
TORSDOF 0
REMARK  Name = ../refined-set-2016/2qbu/2qbu_pocket.pdb
REMARK  198 active torsions:
REMARK  status: ('A' for Active; 'I' for Inactive)
REMARK    1  A    between atoms: _1  and  _3
REMARK    2  A    between atoms: _3  and  _4
REMARK    3  A    between atoms: _6  and  _8
REMARK    4  A    between atoms: _8  and  _9
REMARK    5  A    between atoms: _8  and  _11
REMARK    6  A    between atoms: _14  and  _16
REMARK    7  A    between atoms: _16  and  _17
REMARK    8  A    between atoms: _20  and  _21
REMARK    9  A    between atoms: _26  and  _28
REMARK   10  A    between atoms: _28  and  _29
REMARK   11  A    between atoms: _31  and  _33
REMARK   12  A    between atoms: _33  and  _34
REMARK   13  A    between atoms: _33  and  _36
REMARK   14  A    between atoms: _36  and  _37
REMARK   15  A    between atoms: _40  and  _42
REMARK   16  A    between atoms: _42  and  _43
REMARK   17  A    between atoms: _42  and  _45
REMARK   18  A    between atoms: _45  and  _46
REMARK   19  A    between atoms: _49  and  _51
REMARK   20  A    between atoms: _51  and  _52
REMARK   21  A    between atoms: _51  and  _54
REMARK   22  A    between atoms: _54  and  _55
REMARK   23  A    between atoms: _58  and  _60
REMARK   24  A    between atoms: _60  and  _61
REMARK   25  A    between atoms: _60  and  _63
REMARK   26  A    between atoms: _63  and  _64
REMARK   27  A    between atoms: _67  and  _69
REMARK   28  A    between atoms: _69  and  _70
REMARK   29  A    between atoms: _69  and  _72
REMARK   30  A    between atoms: _72  and  _73
REMARK   31  A    between atoms: _76  and  _78
REMARK   32  A    between atoms: _78  and  _79
REMARK   33  A    between atoms: _81  and  _83
REMARK   34  A    between atoms: _83  and  _84
REMARK   35  A    between atoms: _83  and  _86
REMARK   36  A    between atoms: _86  and  _87
REMARK   37  A    between atoms: _91  and  _92
REMARK   38  A    between atoms: _97  and  _99
REMARK   39  A    between atoms: _99  and  _100
REMARK   40  A    between atoms: _99  and  _102
REMARK   41  A    between atoms: _102  and  _103
REMARK   42  A    between atoms: _105  and  _107
REMARK   43  A    between atoms: _107  and  _108
REMARK   44  A    between atoms: _107  and  _110
REMARK   45  A    between atoms: _110  and  _111
REMARK   46  A    between atoms: _114  and  _116
REMARK   47  A    between atoms: _116  and  _117
REMARK   48  A    between atoms: _116  and  _119
REMARK   49  A    between atoms: _119  and  _120
REMARK   50  A    between atoms: _125  and  _126
REMARK   51  A    between atoms: _128  and  _130
REMARK   52  A    between atoms: _130  and  _131
REMARK   53  A    between atoms: _130  and  _133
REMARK   54  A    between atoms: _133  and  _134
REMARK   55  A    between atoms: _136  and  _138
REMARK   56  A    between atoms: _138  and  _139
REMARK   57  A    between atoms: _138  and  _141
REMARK   58  A    between atoms: _141  and  _142
REMARK   59  A    between atoms: _145  and  _147
REMARK   60  A    between atoms: _147  and  _148
REMARK   61  A    between atoms: _147  and  _150
REMARK   62  A    between atoms: _150  and  _151
REMARK   63  A    between atoms: _157  and  _159
REMARK   64  A    between atoms: _159  and  _160
REMARK   65  A    between atoms: _162  and  _164
REMARK   66  A    between atoms: _164  and  _165
REMARK   67  A    between atoms: _164  and  _167
REMARK   68  A    between atoms: _170  and  _172
REMARK   69  A    between atoms: _172  and  _173
REMARK   70  A    between atoms: _172  and  _175
REMARK   71  A    between atoms: _175  and  _176
REMARK   72  A    between atoms: _179  and  _181
REMARK   73  A    between atoms: _181  and  _182
REMARK   74  A    between atoms: _181  and  _184
REMARK   75  A    between atoms: _184  and  _185
REMARK   76  A    between atoms: _187  and  _189
REMARK   77  A    between atoms: _189  and  _190
REMARK   78  A    between atoms: _189  and  _192
REMARK   79  A    between atoms: _192  and  _193
REMARK   80  A    between atoms: _199  and  _201
REMARK   81  A    between atoms: _201  and  _202
REMARK   82  A    between atoms: _201  and  _204
REMARK   83  A    between atoms: _204  and  _205
REMARK   84  A    between atoms: _208  and  _210
REMARK   85  A    between atoms: _210  and  _211
REMARK   86  A    between atoms: _214  and  _216
REMARK   87  A    between atoms: _216  and  _217
REMARK   88  A    between atoms: _216  and  _219
REMARK   89  A    between atoms: _221  and  _223
REMARK   90  A    between atoms: _223  and  _224
REMARK   91  A    between atoms: _223  and  _226
REMARK   92  A    between atoms: _226  and  _227
REMARK   93  A    between atoms: _230  and  _232
REMARK   94  A    between atoms: _232  and  _233
REMARK   95  A    between atoms: _232  and  _235
REMARK   96  A    between atoms: _239  and  _240
REMARK   97  A    between atoms: _245  and  _247
REMARK   98  A    between atoms: _247  and  _248
REMARK   99  A    between atoms: _247  and  _250
REMARK  100  A    between atoms: _253  and  _255
REMARK  101  A    between atoms: _255  and  _256
REMARK  102  A    between atoms: _255  and  _258
REMARK  103  A    between atoms: _258  and  _259
REMARK  104  A    between atoms: _262  and  _264
REMARK  105  A    between atoms: _264  and  _265
REMARK  106  A    between atoms: _264  and  _267
REMARK  107  A    between atoms: _267  and  _268
REMARK  108  A    between atoms: _268  and  _269
REMARK  109  A    between atoms: _271  and  _273
REMARK  110  A    between atoms: _273  and  _274
REMARK  111  A    between atoms: _273  and  _276
REMARK  112  A    between atoms: _276  and  _277
REMARK  113  A    between atoms: _277  and  _278
REMARK  114  A    between atoms: _278  and  _279
REMARK  115  A    between atoms: _279  and  _280
REMARK  116  A    between atoms: _284  and  _286
REMARK  117  A    between atoms: _286  and  _287
REMARK  118  A    between atoms: _286  and  _289
REMARK  119  A    between atoms: _289  and  _290
REMARK  120  A    between atoms: _293  and  _295
REMARK  121  A    between atoms: _295  and  _296
REMARK  122  A    between atoms: _295  and  _298
REMARK  123  A    between atoms: _298  and  _299
REMARK  124  A    between atoms: _301  and  _303
REMARK  125  A    between atoms: _303  and  _304
REMARK  126  A    between atoms: _303  and  _306
REMARK  127  A    between atoms: _306  and  _307
REMARK  128  A    between atoms: _307  and  _308
REMARK  129  A    between atoms: _308  and  _309
REMARK  130  A    between atoms: _318  and  _320
REMARK  131  A    between atoms: _320  and  _321
REMARK  132  A    between atoms: _320  and  _323
REMARK  133  A    between atoms: _323  and  _324
REMARK  134  A    between atoms: _329  and  _331
REMARK  135  A    between atoms: _331  and  _332
REMARK  136  A    between atoms: _331  and  _334
REMARK  137  A    between atoms: _334  and  _335
REMARK  138  A    between atoms: _337  and  _339
REMARK  139  A    between atoms: _339  and  _340
REMARK  140  A    between atoms: _339  and  _342
REMARK  141  A    between atoms: _345  and  _347
REMARK  142  A    between atoms: _347  and  _348
REMARK  143  A    between atoms: _351  and  _353
REMARK  144  A    between atoms: _353  and  _354
REMARK  145  A    between atoms: _353  and  _356
REMARK  146  A    between atoms: _356  and  _357
REMARK  147  A    between atoms: _362  and  _364
REMARK  148  A    between atoms: _364  and  _365
REMARK  149  A    between atoms: _364  and  _367
REMARK  150  A    between atoms: _369  and  _371
REMARK  151  A    between atoms: _371  and  _372
REMARK  152  A    between atoms: _371  and  _374
REMARK  153  A    between atoms: _374  and  _375
REMARK  154  A    between atoms: _377  and  _379
REMARK  155  A    between atoms: _379  and  _380
REMARK  156  A    between atoms: _379  and  _382
REMARK  157  A    between atoms: _382  and  _383
REMARK  158  A    between atoms: _383  and  _384
REMARK  159  A    between atoms: _386  and  _388
REMARK  160  A    between atoms: _388  and  _389
REMARK  161  A    between atoms: _388  and  _391
REMARK  162  A    between atoms: _391  and  _392
REMARK  163  A    between atoms: _392  and  _393
REMARK  164  A    between atoms: _396  and  _398
REMARK  165  A    between atoms: _398  and  _399
REMARK  166  A    between atoms: _398  and  _401
REMARK  167  A    between atoms: _404  and  _406
REMARK  168  A    between atoms: _406  and  _407
REMARK  169  A    between atoms: _409  and  _411
REMARK  170  A    between atoms: _411  and  _412
REMARK  171  A    between atoms: _414  and  _416
REMARK  172  A    between atoms: _416  and  _417
REMARK  173  A    between atoms: _416  and  _419
REMARK  174  A    between atoms: _419  and  _420
REMARK  175  A    between atoms: _425  and  _426
REMARK  176  A    between atoms: _428  and  _430
REMARK  177  A    between atoms: _430  and  _431
REMARK  178  A    between atoms: _430  and  _433
REMARK  179  A    between atoms: _433  and  _434
REMARK  180  A    between atoms: _437  and  _439
REMARK  181  A    between atoms: _439  and  _440
REMARK  182  A    between atoms: _443  and  _445
REMARK  183  A    between atoms: _445  and  _446
REMARK  184  A    between atoms: _445  and  _448
REMARK  185  A    between atoms: _448  and  _449
REMARK  186  A    between atoms: _452  and  _454
REMARK  187  A    between atoms: _454  and  _455
REMARK  188  A    between atoms: _454  and  _457
REMARK  189  A    between atoms: _457  and  _458
REMARK  190  A    between atoms: _461  and  _463
REMARK  191  A    between atoms: _463  and  _464
REMARK  192  A    between atoms: _463  and  _466
REMARK  193  A    between atoms: _466  and  _467
REMARK  194  A    between atoms: _470  and  _472
REMARK  195  A    between atoms: _472  and  _473
REMARK  196  A    between atoms: _472  and  _475
REMARK  197  A    between atoms: _478  and  _480
REMARK  198  A    between atoms: _480  and  _481
REMARK                            x       y       z     vdW  Elec       q    Type
REMARK                         _______ _______ _______ _____ _____    ______ ____
ROOT
ATOM      1  O   HOH     1     -19.798  41.839   3.021  0.00  0.00    +0.000 OA
ENDROOT
TORSDOF 0
REMARK  Name = ../refined-set-2016/2qbu/2qbu_pocket.pdb
REMARK  198 active torsions:
REMARK  status: ('A' for Active; 'I' for Inactive)
REMARK    1  A    between atoms: _1  and  _3
REMARK    2  A    between atoms: _3  and  _4
REMARK    3  A    between atoms: _6  and  _8
REMARK    4  A    between atoms: _8  and  _9
REMARK    5  A    between atoms: _8  and  _11
REMARK    6  A    between atoms: _14  and  _16
REMARK    7  A    between atoms: _16  and  _17
REMARK    8  A    between atoms: _20  and  _21
REMARK    9  A    between atoms: _26  and  _28
REMARK   10  A    between atoms: _28  and  _29
REMARK   11  A    between atoms: _31  and  _33
REMARK   12  A    between atoms: _33  and  _34
REMARK   13  A    between atoms: _33  and  _36
REMARK   14  A    between atoms: _36  and  _37
REMARK   15  A    between atoms: _40  and  _42
REMARK   16  A    between atoms: _42  and  _43
REMARK   17  A    between atoms: _42  and  _45
REMARK   18  A    between atoms: _45  and  _46
REMARK   19  A    between atoms: _49  and  _51
REMARK   20  A    between atoms: _51  and  _52
REMARK   21  A    between atoms: _51  and  _54
REMARK   22  A    between atoms: _54  and  _55
REMARK   23  A    between atoms: _58  and  _60
REMARK   24  A    between atoms: _60  and  _61
REMARK   25  A    between atoms: _60  and  _63
REMARK   26  A    between atoms: _63  and  _64
REMARK   27  A    between atoms: _67  and  _69
REMARK   28  A    between atoms: _69  and  _70
REMARK   29  A    between atoms: _69  and  _72
REMARK   30  A    between atoms: _72  and  _73
REMARK   31  A    between atoms: _76  and  _78
REMARK   32  A    between atoms: _78  and  _79
REMARK   33  A    between atoms: _81  and  _83
REMARK   34  A    between atoms: _83  and  _84
REMARK   35  A    between atoms: _83  and  _86
REMARK   36  A    between atoms: _86  and  _87
REMARK   37  A    between atoms: _91  and  _92
REMARK   38  A    between atoms: _97  and  _99
REMARK   39  A    between atoms: _99  and  _100
REMARK   40  A    between atoms: _99  and  _102
REMARK   41  A    between atoms: _102  and  _103
REMARK   42  A    between atoms: _105  and  _107
REMARK   43  A    between atoms: _107  and  _108
REMARK   44  A    between atoms: _107  and  _110
REMARK   45  A    between atoms: _110  and  _111
REMARK   46  A    between atoms: _114  and  _116
REMARK   47  A    between atoms: _116  and  _117
REMARK   48  A    between atoms: _116  and  _119
REMARK   49  A    between atoms: _119  and  _120
REMARK   50  A    between atoms: _125  and  _126
REMARK   51  A    between atoms: _128  and  _130
REMARK   52  A    between atoms: _130  and  _131
REMARK   53  A    between atoms: _130  and  _133
REMARK   54  A    between atoms: _133  and  _134
REMARK   55  A    between atoms: _136  and  _138
REMARK   56  A    between atoms: _138  and  _139
REMARK   57  A    between atoms: _138  and  _141
REMARK   58  A    between atoms: _141  and  _142
REMARK   59  A    between atoms: _145  and  _147
REMARK   60  A    between atoms: _147  and  _148
REMARK   61  A    between atoms: _147  and  _150
REMARK   62  A    between atoms: _150  and  _151
REMARK   63  A    between atoms: _157  and  _159
REMARK   64  A    between atoms: _159  and  _160
REMARK   65  A    between atoms: _162  and  _164
REMARK   66  A    between atoms: _164  and  _165
REMARK   67  A    between atoms: _164  and  _167
REMARK   68  A    between atoms: _170  and  _172
REMARK   69  A    between atoms: _172  and  _173
REMARK   70  A    between atoms: _172  and  _175
REMARK   71  A    between atoms: _175  and  _176
REMARK   72  A    between atoms: _179  and  _181
REMARK   73  A    between atoms: _181  and  _182
REMARK   74  A    between atoms: _181  and  _184
REMARK   75  A    between atoms: _184  and  _185
REMARK   76  A    between atoms: _187  and  _189
REMARK   77  A    between atoms: _189  and  _190
REMARK   78  A    between atoms: _189  and  _192
REMARK   79  A    between atoms: _192  and  _193
REMARK   80  A    between atoms: _199  and  _201
REMARK   81  A    between atoms: _201  and  _202
REMARK   82  A    between atoms: _201  and  _204
REMARK   83  A    between atoms: _204  and  _205
REMARK   84  A    between atoms: _208  and  _210
REMARK   85  A    between atoms: _210  and  _211
REMARK   86  A    between atoms: _214  and  _216
REMARK   87  A    between atoms: _216  and  _217
REMARK   88  A    between atoms: _216  and  _219
REMARK   89  A    between atoms: _221  and  _223
REMARK   90  A    between atoms: _223  and  _224
REMARK   91  A    between atoms: _223  and  _226
REMARK   92  A    between atoms: _226  and  _227
REMARK   93  A    between atoms: _230  and  _232
REMARK   94  A    between atoms: _232  and  _233
REMARK   95  A    between atoms: _232  and  _235
REMARK   96  A    between atoms: _239  and  _240
REMARK   97  A    between atoms: _245  and  _247
REMARK   98  A    between atoms: _247  and  _248
REMARK   99  A    between atoms: _247  and  _250
REMARK  100  A    between atoms: _253  and  _255
REMARK  101  A    between atoms: _255  and  _256
REMARK  102  A    between atoms: _255  and  _258
REMARK  103  A    between atoms: _258  and  _259
REMARK  104  A    between atoms: _262  and  _264
REMARK  105  A    between atoms: _264  and  _265
REMARK  106  A    between atoms: _264  and  _267
REMARK  107  A    between atoms: _267  and  _268
REMARK  108  A    between atoms: _268  and  _269
REMARK  109  A    between atoms: _271  and  _273
REMARK  110  A    between atoms: _273  and  _274
REMARK  111  A    between atoms: _273  and  _276
REMARK  112  A    between atoms: _276  and  _277
REMARK  113  A    between atoms: _277  and  _278
REMARK  114  A    between atoms: _278  and  _279
REMARK  115  A    between atoms: _279  and  _280
REMARK  116  A    between atoms: _284  and  _286
REMARK  117  A    between atoms: _286  and  _287
REMARK  118  A    between atoms: _286  and  _289
REMARK  119  A    between atoms: _289  and  _290
REMARK  120  A    between atoms: _293  and  _295
REMARK  121  A    between atoms: _295  and  _296
REMARK  122  A    between atoms: _295  and  _298
REMARK  123  A    between atoms: _298  and  _299
REMARK  124  A    between atoms: _301  and  _303
REMARK  125  A    between atoms: _303  and  _304
REMARK  126  A    between atoms: _303  and  _306
REMARK  127  A    between atoms: _306  and  _307
REMARK  128  A    between atoms: _307  and  _308
REMARK  129  A    between atoms: _308  and  _309
REMARK  130  A    between atoms: _318  and  _320
REMARK  131  A    between atoms: _320  and  _321
REMARK  132  A    between atoms: _320  and  _323
REMARK  133  A    between atoms: _323  and  _324
REMARK  134  A    between atoms: _329  and  _331
REMARK  135  A    between atoms: _331  and  _332
REMARK  136  A    between atoms: _331  and  _334
REMARK  137  A    between atoms: _334  and  _335
REMARK  138  A    between atoms: _337  and  _339
REMARK  139  A    between atoms: _339  and  _340
REMARK  140  A    between atoms: _339  and  _342
REMARK  141  A    between atoms: _345  and  _347
REMARK  142  A    between atoms: _347  and  _348
REMARK  143  A    between atoms: _351  and  _353
REMARK  144  A    between atoms: _353  and  _354
REMARK  145  A    between atoms: _353  and  _356
REMARK  146  A    between atoms: _356  and  _357
REMARK  147  A    between atoms: _362  and  _364
REMARK  148  A    between atoms: _364  and  _365
REMARK  149  A    between atoms: _364  and  _367
REMARK  150  A    between atoms: _369  and  _371
REMARK  151  A    between atoms: _371  and  _372
REMARK  152  A    between atoms: _371  and  _374
REMARK  153  A    between atoms: _374  and  _375
REMARK  154  A    between atoms: _377  and  _379
REMARK  155  A    between atoms: _379  and  _380
REMARK  156  A    between atoms: _379  and  _382
REMARK  157  A    between atoms: _382  and  _383
REMARK  158  A    between atoms: _383  and  _384
REMARK  159  A    between atoms: _386  and  _388
REMARK  160  A    between atoms: _388  and  _389
REMARK  161  A    between atoms: _388  and  _391
REMARK  162  A    between atoms: _391  and  _392
REMARK  163  A    between atoms: _392  and  _393
REMARK  164  A    between atoms: _396  and  _398
REMARK  165  A    between atoms: _398  and  _399
REMARK  166  A    between atoms: _398  and  _401
REMARK  167  A    between atoms: _404  and  _406
REMARK  168  A    between atoms: _406  and  _407
REMARK  169  A    between atoms: _409  and  _411
REMARK  170  A    between atoms: _411  and  _412
REMARK  171  A    between atoms: _414  and  _416
REMARK  172  A    between atoms: _416  and  _417
REMARK  173  A    between atoms: _416  and  _419
REMARK  174  A    between atoms: _419  and  _420
REMARK  175  A    between atoms: _425  and  _426
REMARK  176  A    between atoms: _428  and  _430
REMARK  177  A    between atoms: _430  and  _431
REMARK  178  A    between atoms: _430  and  _433
REMARK  179  A    between atoms: _433  and  _434
REMARK  180  A    between atoms: _437  and  _439
REMARK  181  A    between atoms: _439  and  _440
REMARK  182  A    between atoms: _443  and  _445
REMARK  183  A    between atoms: _445  and  _446
REMARK  184  A    between atoms: _445  and  _448
REMARK  185  A    between atoms: _448  and  _449
REMARK  186  A    between atoms: _452  and  _454
REMARK  187  A    between atoms: _454  and  _455
REMARK  188  A    between atoms: _454  and  _457
REMARK  189  A    between atoms: _457  and  _458
REMARK  190  A    between atoms: _461  and  _463
REMARK  191  A    between atoms: _463  and  _464
REMARK  192  A    between atoms: _463  and  _466
REMARK  193  A    between atoms: _466  and  _467
REMARK  194  A    between atoms: _470  and  _472
REMARK  195  A    between atoms: _472  and  _473
REMARK  196  A    between atoms: _472  and  _475
REMARK  197  A    between atoms: _478  and  _480
REMARK  198  A    between atoms: _480  and  _481
REMARK                            x       y       z     vdW  Elec       q    Type
REMARK                         _______ _______ _______ _____ _____    ______ ____
ROOT
ATOM      1  O   HOH     1     -18.619  39.264   4.372  0.00  0.00    +0.000 OA
ENDROOT
TORSDOF 0
REMARK  Name = ../refined-set-2016/2qbu/2qbu_pocket.pdb
REMARK  198 active torsions:
REMARK  status: ('A' for Active; 'I' for Inactive)
REMARK    1  A    between atoms: _1  and  _3
REMARK    2  A    between atoms: _3  and  _4
REMARK    3  A    between atoms: _6  and  _8
REMARK    4  A    between atoms: _8  and  _9
REMARK    5  A    between atoms: _8  and  _11
REMARK    6  A    between atoms: _14  and  _16
REMARK    7  A    between atoms: _16  and  _17
REMARK    8  A    between atoms: _20  and  _21
REMARK    9  A    between atoms: _26  and  _28
REMARK   10  A    between atoms: _28  and  _29
REMARK   11  A    between atoms: _31  and  _33
REMARK   12  A    between atoms: _33  and  _34
REMARK   13  A    between atoms: _33  and  _36
REMARK   14  A    between atoms: _36  and  _37
REMARK   15  A    between atoms: _40  and  _42
REMARK   16  A    between atoms: _42  and  _43
REMARK   17  A    between atoms: _42  and  _45
REMARK   18  A    between atoms: _45  and  _46
REMARK   19  A    between atoms: _49  and  _51
REMARK   20  A    between atoms: _51  and  _52
REMARK   21  A    between atoms: _51  and  _54
REMARK   22  A    between atoms: _54  and  _55
REMARK   23  A    between atoms: _58  and  _60
REMARK   24  A    between atoms: _60  and  _61
REMARK   25  A    between atoms: _60  and  _63
REMARK   26  A    between atoms: _63  and  _64
REMARK   27  A    between atoms: _67  and  _69
REMARK   28  A    between atoms: _69  and  _70
REMARK   29  A    between atoms: _69  and  _72
REMARK   30  A    between atoms: _72  and  _73
REMARK   31  A    between atoms: _76  and  _78
REMARK   32  A    between atoms: _78  and  _79
REMARK   33  A    between atoms: _81  and  _83
REMARK   34  A    between atoms: _83  and  _84
REMARK   35  A    between atoms: _83  and  _86
REMARK   36  A    between atoms: _86  and  _87
REMARK   37  A    between atoms: _91  and  _92
REMARK   38  A    between atoms: _97  and  _99
REMARK   39  A    between atoms: _99  and  _100
REMARK   40  A    between atoms: _99  and  _102
REMARK   41  A    between atoms: _102  and  _103
REMARK   42  A    between atoms: _105  and  _107
REMARK   43  A    between atoms: _107  and  _108
REMARK   44  A    between atoms: _107  and  _110
REMARK   45  A    between atoms: _110  and  _111
REMARK   46  A    between atoms: _114  and  _116
REMARK   47  A    between atoms: _116  and  _117
REMARK   48  A    between atoms: _116  and  _119
REMARK   49  A    between atoms: _119  and  _120
REMARK   50  A    between atoms: _125  and  _126
REMARK   51  A    between atoms: _128  and  _130
REMARK   52  A    between atoms: _130  and  _131
REMARK   53  A    between atoms: _130  and  _133
REMARK   54  A    between atoms: _133  and  _134
REMARK   55  A    between atoms: _136  and  _138
REMARK   56  A    between atoms: _138  and  _139
REMARK   57  A    between atoms: _138  and  _141
REMARK   58  A    between atoms: _141  and  _142
REMARK   59  A    between atoms: _145  and  _147
REMARK   60  A    between atoms: _147  and  _148
REMARK   61  A    between atoms: _147  and  _150
REMARK   62  A    between atoms: _150  and  _151
REMARK   63  A    between atoms: _157  and  _159
REMARK   64  A    between atoms: _159  and  _160
REMARK   65  A    between atoms: _162  and  _164
REMARK   66  A    between atoms: _164  and  _165
REMARK   67  A    between atoms: _164  and  _167
REMARK   68  A    between atoms: _170  and  _172
REMARK   69  A    between atoms: _172  and  _173
REMARK   70  A    between atoms: _172  and  _175
REMARK   71  A    between atoms: _175  and  _176
REMARK   72  A    between atoms: _179  and  _181
REMARK   73  A    between atoms: _181  and  _182
REMARK   74  A    between atoms: _181  and  _184
REMARK   75  A    between atoms: _184  and  _185
REMARK   76  A    between atoms: _187  and  _189
REMARK   77  A    between atoms: _189  and  _190
REMARK   78  A    between atoms: _189  and  _192
REMARK   79  A    between atoms: _192  and  _193
REMARK   80  A    between atoms: _199  and  _201
REMARK   81  A    between atoms: _201  and  _202
REMARK   82  A    between atoms: _201  and  _204
REMARK   83  A    between atoms: _204  and  _205
REMARK   84  A    between atoms: _208  and  _210
REMARK   85  A    between atoms: _210  and  _211
REMARK   86  A    between atoms: _214  and  _216
REMARK   87  A    between atoms: _216  and  _217
REMARK   88  A    between atoms: _216  and  _219
REMARK   89  A    between atoms: _221  and  _223
REMARK   90  A    between atoms: _223  and  _224
REMARK   91  A    between atoms: _223  and  _226
REMARK   92  A    between atoms: _226  and  _227
REMARK   93  A    between atoms: _230  and  _232
REMARK   94  A    between atoms: _232  and  _233
REMARK   95  A    between atoms: _232  and  _235
REMARK   96  A    between atoms: _239  and  _240
REMARK   97  A    between atoms: _245  and  _247
REMARK   98  A    between atoms: _247  and  _248
REMARK   99  A    between atoms: _247  and  _250
REMARK  100  A    between atoms: _253  and  _255
REMARK  101  A    between atoms: _255  and  _256
REMARK  102  A    between atoms: _255  and  _258
REMARK  103  A    between atoms: _258  and  _259
REMARK  104  A    between atoms: _262  and  _264
REMARK  105  A    between atoms: _264  and  _265
REMARK  106  A    between atoms: _264  and  _267
REMARK  107  A    between atoms: _267  and  _268
REMARK  108  A    between atoms: _268  and  _269
REMARK  109  A    between atoms: _271  and  _273
REMARK  110  A    between atoms: _273  and  _274
REMARK  111  A    between atoms: _273  and  _276
REMARK  112  A    between atoms: _276  and  _277
REMARK  113  A    between atoms: _277  and  _278
REMARK  114  A    between atoms: _278  and  _279
REMARK  115  A    between atoms: _279  and  _280
REMARK  116  A    between atoms: _284  and  _286
REMARK  117  A    between atoms: _286  and  _287
REMARK  118  A    between atoms: _286  and  _289
REMARK  119  A    between atoms: _289  and  _290
REMARK  120  A    between atoms: _293  and  _295
REMARK  121  A    between atoms: _295  and  _296
REMARK  122  A    between atoms: _295  and  _298
REMARK  123  A    between atoms: _298  and  _299
REMARK  124  A    between atoms: _301  and  _303
REMARK  125  A    between atoms: _303  and  _304
REMARK  126  A    between atoms: _303  and  _306
REMARK  127  A    between atoms: _306  and  _307
REMARK  128  A    between atoms: _307  and  _308
REMARK  129  A    between atoms: _308  and  _309
REMARK  130  A    between atoms: _318  and  _320
REMARK  131  A    between atoms: _320  and  _321
REMARK  132  A    between atoms: _320  and  _323
REMARK  133  A    between atoms: _323  and  _324
REMARK  134  A    between atoms: _329  and  _331
REMARK  135  A    between atoms: _331  and  _332
REMARK  136  A    between atoms: _331  and  _334
REMARK  137  A    between atoms: _334  and  _335
REMARK  138  A    between atoms: _337  and  _339
REMARK  139  A    between atoms: _339  and  _340
REMARK  140  A    between atoms: _339  and  _342
REMARK  141  A    between atoms: _345  and  _347
REMARK  142  A    between atoms: _347  and  _348
REMARK  143  A    between atoms: _351  and  _353
REMARK  144  A    between atoms: _353  and  _354
REMARK  145  A    between atoms: _353  and  _356
REMARK  146  A    between atoms: _356  and  _357
REMARK  147  A    between atoms: _362  and  _364
REMARK  148  A    between atoms: _364  and  _365
REMARK  149  A    between atoms: _364  and  _367
REMARK  150  A    between atoms: _369  and  _371
REMARK  151  A    between atoms: _371  and  _372
REMARK  152  A    between atoms: _371  and  _374
REMARK  153  A    between atoms: _374  and  _375
REMARK  154  A    between atoms: _377  and  _379
REMARK  155  A    between atoms: _379  and  _380
REMARK  156  A    between atoms: _379  and  _382
REMARK  157  A    between atoms: _382  and  _383
REMARK  158  A    between atoms: _383  and  _384
REMARK  159  A    between atoms: _386  and  _388
REMARK  160  A    between atoms: _388  and  _389
REMARK  161  A    between atoms: _388  and  _391
REMARK  162  A    between atoms: _391  and  _392
REMARK  163  A    between atoms: _392  and  _393
REMARK  164  A    between atoms: _396  and  _398
REMARK  165  A    between atoms: _398  and  _399
REMARK  166  A    between atoms: _398  and  _401
REMARK  167  A    between atoms: _404  and  _406
REMARK  168  A    between atoms: _406  and  _407
REMARK  169  A    between atoms: _409  and  _411
REMARK  170  A    between atoms: _411  and  _412
REMARK  171  A    between atoms: _414  and  _416
REMARK  172  A    between atoms: _416  and  _417
REMARK  173  A    between atoms: _416  and  _419
REMARK  174  A    between atoms: _419  and  _420
REMARK  175  A    between atoms: _425  and  _426
REMARK  176  A    between atoms: _428  and  _430
REMARK  177  A    between atoms: _430  and  _431
REMARK  178  A    between atoms: _430  and  _433
REMARK  179  A    between atoms: _433  and  _434
REMARK  180  A    between atoms: _437  and  _439
REMARK  181  A    between atoms: _439  and  _440
REMARK  182  A    between atoms: _443  and  _445
REMARK  183  A    between atoms: _445  and  _446
REMARK  184  A    between atoms: _445  and  _448
REMARK  185  A    between atoms: _448  and  _449
REMARK  186  A    between atoms: _452  and  _454
REMARK  187  A    between atoms: _454  and  _455
REMARK  188  A    between atoms: _454  and  _457
REMARK  189  A    between atoms: _457  and  _458
REMARK  190  A    between atoms: _461  and  _463
REMARK  191  A    between atoms: _463  and  _464
REMARK  192  A    between atoms: _463  and  _466
REMARK  193  A    between atoms: _466  and  _467
REMARK  194  A    between atoms: _470  and  _472
REMARK  195  A    between atoms: _472  and  _473
REMARK  196  A    between atoms: _472  and  _475
REMARK  197  A    between atoms: _478  and  _480
REMARK  198  A    between atoms: _480  and  _481
REMARK                            x       y       z     vdW  Elec       q    Type
REMARK                         _______ _______ _______ _____ _____    ______ ____
ROOT
ATOM      1  O   HOH     1     -19.328  39.561   0.188  0.00  0.00    +0.000 OA
ENDROOT
TORSDOF 0
REMARK  Name = ../refined-set-2016/2qbu/2qbu_pocket.pdb
REMARK  198 active torsions:
REMARK  status: ('A' for Active; 'I' for Inactive)
REMARK    1  A    between atoms: _1  and  _3
REMARK    2  A    between atoms: _3  and  _4
REMARK    3  A    between atoms: _6  and  _8
REMARK    4  A    between atoms: _8  and  _9
REMARK    5  A    between atoms: _8  and  _11
REMARK    6  A    between atoms: _14  and  _16
REMARK    7  A    between atoms: _16  and  _17
REMARK    8  A    between atoms: _20  and  _21
REMARK    9  A    between atoms: _26  and  _28
REMARK   10  A    between atoms: _28  and  _29
REMARK   11  A    between atoms: _31  and  _33
REMARK   12  A    between atoms: _33  and  _34
REMARK   13  A    between atoms: _33  and  _36
REMARK   14  A    between atoms: _36  and  _37
REMARK   15  A    between atoms: _40  and  _42
REMARK   16  A    between atoms: _42  and  _43
REMARK   17  A    between atoms: _42  and  _45
REMARK   18  A    between atoms: _45  and  _46
REMARK   19  A    between atoms: _49  and  _51
REMARK   20  A    between atoms: _51  and  _52
REMARK   21  A    between atoms: _51  and  _54
REMARK   22  A    between atoms: _54  and  _55
REMARK   23  A    between atoms: _58  and  _60
REMARK   24  A    between atoms: _60  and  _61
REMARK   25  A    between atoms: _60  and  _63
REMARK   26  A    between atoms: _63  and  _64
REMARK   27  A    between atoms: _67  and  _69
REMARK   28  A    between atoms: _69  and  _70
REMARK   29  A    between atoms: _69  and  _72
REMARK   30  A    between atoms: _72  and  _73
REMARK   31  A    between atoms: _76  and  _78
REMARK   32  A    between atoms: _78  and  _79
REMARK   33  A    between atoms: _81  and  _83
REMARK   34  A    between atoms: _83  and  _84
REMARK   35  A    between atoms: _83  and  _86
REMARK   36  A    between atoms: _86  and  _87
REMARK   37  A    between atoms: _91  and  _92
REMARK   38  A    between atoms: _97  and  _99
REMARK   39  A    between atoms: _99  and  _100
REMARK   40  A    between atoms: _99  and  _102
REMARK   41  A    between atoms: _102  and  _103
REMARK   42  A    between atoms: _105  and  _107
REMARK   43  A    between atoms: _107  and  _108
REMARK   44  A    between atoms: _107  and  _110
REMARK   45  A    between atoms: _110  and  _111
REMARK   46  A    between atoms: _114  and  _116
REMARK   47  A    between atoms: _116  and  _117
REMARK   48  A    between atoms: _116  and  _119
REMARK   49  A    between atoms: _119  and  _120
REMARK   50  A    between atoms: _125  and  _126
REMARK   51  A    between atoms: _128  and  _130
REMARK   52  A    between atoms: _130  and  _131
REMARK   53  A    between atoms: _130  and  _133
REMARK   54  A    between atoms: _133  and  _134
REMARK   55  A    between atoms: _136  and  _138
REMARK   56  A    between atoms: _138  and  _139
REMARK   57  A    between atoms: _138  and  _141
REMARK   58  A    between atoms: _141  and  _142
REMARK   59  A    between atoms: _145  and  _147
REMARK   60  A    between atoms: _147  and  _148
REMARK   61  A    between atoms: _147  and  _150
REMARK   62  A    between atoms: _150  and  _151
REMARK   63  A    between atoms: _157  and  _159
REMARK   64  A    between atoms: _159  and  _160
REMARK   65  A    between atoms: _162  and  _164
REMARK   66  A    between atoms: _164  and  _165
REMARK   67  A    between atoms: _164  and  _167
REMARK   68  A    between atoms: _170  and  _172
REMARK   69  A    between atoms: _172  and  _173
REMARK   70  A    between atoms: _172  and  _175
REMARK   71  A    between atoms: _175  and  _176
REMARK   72  A    between atoms: _179  and  _181
REMARK   73  A    between atoms: _181  and  _182
REMARK   74  A    between atoms: _181  and  _184
REMARK   75  A    between atoms: _184  and  _185
REMARK   76  A    between atoms: _187  and  _189
REMARK   77  A    between atoms: _189  and  _190
REMARK   78  A    between atoms: _189  and  _192
REMARK   79  A    between atoms: _192  and  _193
REMARK   80  A    between atoms: _199  and  _201
REMARK   81  A    between atoms: _201  and  _202
REMARK   82  A    between atoms: _201  and  _204
REMARK   83  A    between atoms: _204  and  _205
REMARK   84  A    between atoms: _208  and  _210
REMARK   85  A    between atoms: _210  and  _211
REMARK   86  A    between atoms: _214  and  _216
REMARK   87  A    between atoms: _216  and  _217
REMARK   88  A    between atoms: _216  and  _219
REMARK   89  A    between atoms: _221  and  _223
REMARK   90  A    between atoms: _223  and  _224
REMARK   91  A    between atoms: _223  and  _226
REMARK   92  A    between atoms: _226  and  _227
REMARK   93  A    between atoms: _230  and  _232
REMARK   94  A    between atoms: _232  and  _233
REMARK   95  A    between atoms: _232  and  _235
REMARK   96  A    between atoms: _239  and  _240
REMARK   97  A    between atoms: _245  and  _247
REMARK   98  A    between atoms: _247  and  _248
REMARK   99  A    between atoms: _247  and  _250
REMARK  100  A    between atoms: _253  and  _255
REMARK  101  A    between atoms: _255  and  _256
REMARK  102  A    between atoms: _255  and  _258
REMARK  103  A    between atoms: _258  and  _259
REMARK  104  A    between atoms: _262  and  _264
REMARK  105  A    between atoms: _264  and  _265
REMARK  106  A    between atoms: _264  and  _267
REMARK  107  A    between atoms: _267  and  _268
REMARK  108  A    between atoms: _268  and  _269
REMARK  109  A    between atoms: _271  and  _273
REMARK  110  A    between atoms: _273  and  _274
REMARK  111  A    between atoms: _273  and  _276
REMARK  112  A    between atoms: _276  and  _277
REMARK  113  A    between atoms: _277  and  _278
REMARK  114  A    between atoms: _278  and  _279
REMARK  115  A    between atoms: _279  and  _280
REMARK  116  A    between atoms: _284  and  _286
REMARK  117  A    between atoms: _286  and  _287
REMARK  118  A    between atoms: _286  and  _289
REMARK  119  A    between atoms: _289  and  _290
REMARK  120  A    between atoms: _293  and  _295
REMARK  121  A    between atoms: _295  and  _296
REMARK  122  A    between atoms: _295  and  _298
REMARK  123  A    between atoms: _298  and  _299
REMARK  124  A    between atoms: _301  and  _303
REMARK  125  A    between atoms: _303  and  _304
REMARK  126  A    between atoms: _303  and  _306
REMARK  127  A    between atoms: _306  and  _307
REMARK  128  A    between atoms: _307  and  _308
REMARK  129  A    between atoms: _308  and  _309
REMARK  130  A    between atoms: _318  and  _320
REMARK  131  A    between atoms: _320  and  _321
REMARK  132  A    between atoms: _320  and  _323
REMARK  133  A    between atoms: _323  and  _324
REMARK  134  A    between atoms: _329  and  _331
REMARK  135  A    between atoms: _331  and  _332
REMARK  136  A    between atoms: _331  and  _334
REMARK  137  A    between atoms: _334  and  _335
REMARK  138  A    between atoms: _337  and  _339
REMARK  139  A    between atoms: _339  and  _340
REMARK  140  A    between atoms: _339  and  _342
REMARK  141  A    between atoms: _345  and  _347
REMARK  142  A    between atoms: _347  and  _348
REMARK  143  A    between atoms: _351  and  _353
REMARK  144  A    between atoms: _353  and  _354
REMARK  145  A    between atoms: _353  and  _356
REMARK  146  A    between atoms: _356  and  _357
REMARK  147  A    between atoms: _362  and  _364
REMARK  148  A    between atoms: _364  and  _365
REMARK  149  A    between atoms: _364  and  _367
REMARK  150  A    between atoms: _369  and  _371
REMARK  151  A    between atoms: _371  and  _372
REMARK  152  A    between atoms: _371  and  _374
REMARK  153  A    between atoms: _374  and  _375
REMARK  154  A    between atoms: _377  and  _379
REMARK  155  A    between atoms: _379  and  _380
REMARK  156  A    between atoms: _379  and  _382
REMARK  157  A    between atoms: _382  and  _383
REMARK  158  A    between atoms: _383  and  _384
REMARK  159  A    between atoms: _386  and  _388
REMARK  160  A    between atoms: _388  and  _389
REMARK  161  A    between atoms: _388  and  _391
REMARK  162  A    between atoms: _391  and  _392
REMARK  163  A    between atoms: _392  and  _393
REMARK  164  A    between atoms: _396  and  _398
REMARK  165  A    between atoms: _398  and  _399
REMARK  166  A    between atoms: _398  and  _401
REMARK  167  A    between atoms: _404  and  _406
REMARK  168  A    between atoms: _406  and  _407
REMARK  169  A    between atoms: _409  and  _411
REMARK  170  A    between atoms: _411  and  _412
REMARK  171  A    between atoms: _414  and  _416
REMARK  172  A    between atoms: _416  and  _417
REMARK  173  A    between atoms: _416  and  _419
REMARK  174  A    between atoms: _419  and  _420
REMARK  175  A    between atoms: _425  and  _426
REMARK  176  A    between atoms: _428  and  _430
REMARK  177  A    between atoms: _430  and  _431
REMARK  178  A    between atoms: _430  and  _433
REMARK  179  A    between atoms: _433  and  _434
REMARK  180  A    between atoms: _437  and  _439
REMARK  181  A    between atoms: _439  and  _440
REMARK  182  A    between atoms: _443  and  _445
REMARK  183  A    between atoms: _445  and  _446
REMARK  184  A    between atoms: _445  and  _448
REMARK  185  A    between atoms: _448  and  _449
REMARK  186  A    between atoms: _452  and  _454
REMARK  187  A    between atoms: _454  and  _455
REMARK  188  A    between atoms: _454  and  _457
REMARK  189  A    between atoms: _457  and  _458
REMARK  190  A    between atoms: _461  and  _463
REMARK  191  A    between atoms: _463  and  _464
REMARK  192  A    between atoms: _463  and  _466
REMARK  193  A    between atoms: _466  and  _467
REMARK  194  A    between atoms: _470  and  _472
REMARK  195  A    between atoms: _472  and  _473
REMARK  196  A    between atoms: _472  and  _475
REMARK  197  A    between atoms: _478  and  _480
REMARK  198  A    between atoms: _480  and  _481
REMARK                            x       y       z     vdW  Elec       q    Type
REMARK                         _______ _______ _______ _____ _____    ______ ____
ROOT
ATOM      1  O   HOH     1     -26.429  35.780  -5.922  0.00  0.00    +0.000 OA
ENDROOT
TORSDOF 0
REMARK  Name = ../refined-set-2016/2qbu/2qbu_pocket.pdb
REMARK  198 active torsions:
REMARK  status: ('A' for Active; 'I' for Inactive)
REMARK    1  A    between atoms: _1  and  _3
REMARK    2  A    between atoms: _3  and  _4
REMARK    3  A    between atoms: _6  and  _8
REMARK    4  A    between atoms: _8  and  _9
REMARK    5  A    between atoms: _8  and  _11
REMARK    6  A    between atoms: _14  and  _16
REMARK    7  A    between atoms: _16  and  _17
REMARK    8  A    between atoms: _20  and  _21
REMARK    9  A    between atoms: _26  and  _28
REMARK   10  A    between atoms: _28  and  _29
REMARK   11  A    between atoms: _31  and  _33
REMARK   12  A    between atoms: _33  and  _34
REMARK   13  A    between atoms: _33  and  _36
REMARK   14  A    between atoms: _36  and  _37
REMARK   15  A    between atoms: _40  and  _42
REMARK   16  A    between atoms: _42  and  _43
REMARK   17  A    between atoms: _42  and  _45
REMARK   18  A    between atoms: _45  and  _46
REMARK   19  A    between atoms: _49  and  _51
REMARK   20  A    between atoms: _51  and  _52
REMARK   21  A    between atoms: _51  and  _54
REMARK   22  A    between atoms: _54  and  _55
REMARK   23  A    between atoms: _58  and  _60
REMARK   24  A    between atoms: _60  and  _61
REMARK   25  A    between atoms: _60  and  _63
REMARK   26  A    between atoms: _63  and  _64
REMARK   27  A    between atoms: _67  and  _69
REMARK   28  A    between atoms: _69  and  _70
REMARK   29  A    between atoms: _69  and  _72
REMARK   30  A    between atoms: _72  and  _73
REMARK   31  A    between atoms: _76  and  _78
REMARK   32  A    between atoms: _78  and  _79
REMARK   33  A    between atoms: _81  and  _83
REMARK   34  A    between atoms: _83  and  _84
REMARK   35  A    between atoms: _83  and  _86
REMARK   36  A    between atoms: _86  and  _87
REMARK   37  A    between atoms: _91  and  _92
REMARK   38  A    between atoms: _97  and  _99
REMARK   39  A    between atoms: _99  and  _100
REMARK   40  A    between atoms: _99  and  _102
REMARK   41  A    between atoms: _102  and  _103
REMARK   42  A    between atoms: _105  and  _107
REMARK   43  A    between atoms: _107  and  _108
REMARK   44  A    between atoms: _107  and  _110
REMARK   45  A    between atoms: _110  and  _111
REMARK   46  A    between atoms: _114  and  _116
REMARK   47  A    between atoms: _116  and  _117
REMARK   48  A    between atoms: _116  and  _119
REMARK   49  A    between atoms: _119  and  _120
REMARK   50  A    between atoms: _125  and  _126
REMARK   51  A    between atoms: _128  and  _130
REMARK   52  A    between atoms: _130  and  _131
REMARK   53  A    between atoms: _130  and  _133
REMARK   54  A    between atoms: _133  and  _134
REMARK   55  A    between atoms: _136  and  _138
REMARK   56  A    between atoms: _138  and  _139
REMARK   57  A    between atoms: _138  and  _141
REMARK   58  A    between atoms: _141  and  _142
REMARK   59  A    between atoms: _145  and  _147
REMARK   60  A    between atoms: _147  and  _148
REMARK   61  A    between atoms: _147  and  _150
REMARK   62  A    between atoms: _150  and  _151
REMARK   63  A    between atoms: _157  and  _159
REMARK   64  A    between atoms: _159  and  _160
REMARK   65  A    between atoms: _162  and  _164
REMARK   66  A    between atoms: _164  and  _165
REMARK   67  A    between atoms: _164  and  _167
REMARK   68  A    between atoms: _170  and  _172
REMARK   69  A    between atoms: _172  and  _173
REMARK   70  A    between atoms: _172  and  _175
REMARK   71  A    between atoms: _175  and  _176
REMARK   72  A    between atoms: _179  and  _181
REMARK   73  A    between atoms: _181  and  _182
REMARK   74  A    between atoms: _181  and  _184
REMARK   75  A    between atoms: _184  and  _185
REMARK   76  A    between atoms: _187  and  _189
REMARK   77  A    between atoms: _189  and  _190
REMARK   78  A    between atoms: _189  and  _192
REMARK   79  A    between atoms: _192  and  _193
REMARK   80  A    between atoms: _199  and  _201
REMARK   81  A    between atoms: _201  and  _202
REMARK   82  A    between atoms: _201  and  _204
REMARK   83  A    between atoms: _204  and  _205
REMARK   84  A    between atoms: _208  and  _210
REMARK   85  A    between atoms: _210  and  _211
REMARK   86  A    between atoms: _214  and  _216
REMARK   87  A    between atoms: _216  and  _217
REMARK   88  A    between atoms: _216  and  _219
REMARK   89  A    between atoms: _221  and  _223
REMARK   90  A    between atoms: _223  and  _224
REMARK   91  A    between atoms: _223  and  _226
REMARK   92  A    between atoms: _226  and  _227
REMARK   93  A    between atoms: _230  and  _232
REMARK   94  A    between atoms: _232  and  _233
REMARK   95  A    between atoms: _232  and  _235
REMARK   96  A    between atoms: _239  and  _240
REMARK   97  A    between atoms: _245  and  _247
REMARK   98  A    between atoms: _247  and  _248
REMARK   99  A    between atoms: _247  and  _250
REMARK  100  A    between atoms: _253  and  _255
REMARK  101  A    between atoms: _255  and  _256
REMARK  102  A    between atoms: _255  and  _258
REMARK  103  A    between atoms: _258  and  _259
REMARK  104  A    between atoms: _262  and  _264
REMARK  105  A    between atoms: _264  and  _265
REMARK  106  A    between atoms: _264  and  _267
REMARK  107  A    between atoms: _267  and  _268
REMARK  108  A    between atoms: _268  and  _269
REMARK  109  A    between atoms: _271  and  _273
REMARK  110  A    between atoms: _273  and  _274
REMARK  111  A    between atoms: _273  and  _276
REMARK  112  A    between atoms: _276  and  _277
REMARK  113  A    between atoms: _277  and  _278
REMARK  114  A    between atoms: _278  and  _279
REMARK  115  A    between atoms: _279  and  _280
REMARK  116  A    between atoms: _284  and  _286
REMARK  117  A    between atoms: _286  and  _287
REMARK  118  A    between atoms: _286  and  _289
REMARK  119  A    between atoms: _289  and  _290
REMARK  120  A    between atoms: _293  and  _295
REMARK  121  A    between atoms: _295  and  _296
REMARK  122  A    between atoms: _295  and  _298
REMARK  123  A    between atoms: _298  and  _299
REMARK  124  A    between atoms: _301  and  _303
REMARK  125  A    between atoms: _303  and  _304
REMARK  126  A    between atoms: _303  and  _306
REMARK  127  A    between atoms: _306  and  _307
REMARK  128  A    between atoms: _307  and  _308
REMARK  129  A    between atoms: _308  and  _309
REMARK  130  A    between atoms: _318  and  _320
REMARK  131  A    between atoms: _320  and  _321
REMARK  132  A    between atoms: _320  and  _323
REMARK  133  A    between atoms: _323  and  _324
REMARK  134  A    between atoms: _329  and  _331
REMARK  135  A    between atoms: _331  and  _332
REMARK  136  A    between atoms: _331  and  _334
REMARK  137  A    between atoms: _334  and  _335
REMARK  138  A    between atoms: _337  and  _339
REMARK  139  A    between atoms: _339  and  _340
REMARK  140  A    between atoms: _339  and  _342
REMARK  141  A    between atoms: _345  and  _347
REMARK  142  A    between atoms: _347  and  _348
REMARK  143  A    between atoms: _351  and  _353
REMARK  144  A    between atoms: _353  and  _354
REMARK  145  A    between atoms: _353  and  _356
REMARK  146  A    between atoms: _356  and  _357
REMARK  147  A    between atoms: _362  and  _364
REMARK  148  A    between atoms: _364  and  _365
REMARK  149  A    between atoms: _364  and  _367
REMARK  150  A    between atoms: _369  and  _371
REMARK  151  A    between atoms: _371  and  _372
REMARK  152  A    between atoms: _371  and  _374
REMARK  153  A    between atoms: _374  and  _375
REMARK  154  A    between atoms: _377  and  _379
REMARK  155  A    between atoms: _379  and  _380
REMARK  156  A    between atoms: _379  and  _382
REMARK  157  A    between atoms: _382  and  _383
REMARK  158  A    between atoms: _383  and  _384
REMARK  159  A    between atoms: _386  and  _388
REMARK  160  A    between atoms: _388  and  _389
REMARK  161  A    between atoms: _388  and  _391
REMARK  162  A    between atoms: _391  and  _392
REMARK  163  A    between atoms: _392  and  _393
REMARK  164  A    between atoms: _396  and  _398
REMARK  165  A    between atoms: _398  and  _399
REMARK  166  A    between atoms: _398  and  _401
REMARK  167  A    between atoms: _404  and  _406
REMARK  168  A    between atoms: _406  and  _407
REMARK  169  A    between atoms: _409  and  _411
REMARK  170  A    between atoms: _411  and  _412
REMARK  171  A    between atoms: _414  and  _416
REMARK  172  A    between atoms: _416  and  _417
REMARK  173  A    between atoms: _416  and  _419
REMARK  174  A    between atoms: _419  and  _420
REMARK  175  A    between atoms: _425  and  _426
REMARK  176  A    between atoms: _428  and  _430
REMARK  177  A    between atoms: _430  and  _431
REMARK  178  A    between atoms: _430  and  _433
REMARK  179  A    between atoms: _433  and  _434
REMARK  180  A    between atoms: _437  and  _439
REMARK  181  A    between atoms: _439  and  _440
REMARK  182  A    between atoms: _443  and  _445
REMARK  183  A    between atoms: _445  and  _446
REMARK  184  A    between atoms: _445  and  _448
REMARK  185  A    between atoms: _448  and  _449
REMARK  186  A    between atoms: _452  and  _454
REMARK  187  A    between atoms: _454  and  _455
REMARK  188  A    between atoms: _454  and  _457
REMARK  189  A    between atoms: _457  and  _458
REMARK  190  A    between atoms: _461  and  _463
REMARK  191  A    between atoms: _463  and  _464
REMARK  192  A    between atoms: _463  and  _466
REMARK  193  A    between atoms: _466  and  _467
REMARK  194  A    between atoms: _470  and  _472
REMARK  195  A    between atoms: _472  and  _473
REMARK  196  A    between atoms: _472  and  _475
REMARK  197  A    between atoms: _478  and  _480
REMARK  198  A    between atoms: _480  and  _481
REMARK                            x       y       z     vdW  Elec       q    Type
REMARK                         _______ _______ _______ _____ _____    ______ ____
ROOT
ATOM      1  O   HOH     1     -19.969  43.430 -10.606  0.00  0.00    +0.000 OA
ENDROOT
TORSDOF 0
REMARK  Name = ../refined-set-2016/2qbu/2qbu_pocket.pdb
REMARK  198 active torsions:
REMARK  status: ('A' for Active; 'I' for Inactive)
REMARK    1  A    between atoms: _1  and  _3
REMARK    2  A    between atoms: _3  and  _4
REMARK    3  A    between atoms: _6  and  _8
REMARK    4  A    between atoms: _8  and  _9
REMARK    5  A    between atoms: _8  and  _11
REMARK    6  A    between atoms: _14  and  _16
REMARK    7  A    between atoms: _16  and  _17
REMARK    8  A    between atoms: _20  and  _21
REMARK    9  A    between atoms: _26  and  _28
REMARK   10  A    between atoms: _28  and  _29
REMARK   11  A    between atoms: _31  and  _33
REMARK   12  A    between atoms: _33  and  _34
REMARK   13  A    between atoms: _33  and  _36
REMARK   14  A    between atoms: _36  and  _37
REMARK   15  A    between atoms: _40  and  _42
REMARK   16  A    between atoms: _42  and  _43
REMARK   17  A    between atoms: _42  and  _45
REMARK   18  A    between atoms: _45  and  _46
REMARK   19  A    between atoms: _49  and  _51
REMARK   20  A    between atoms: _51  and  _52
REMARK   21  A    between atoms: _51  and  _54
REMARK   22  A    between atoms: _54  and  _55
REMARK   23  A    between atoms: _58  and  _60
REMARK   24  A    between atoms: _60  and  _61
REMARK   25  A    between atoms: _60  and  _63
REMARK   26  A    between atoms: _63  and  _64
REMARK   27  A    between atoms: _67  and  _69
REMARK   28  A    between atoms: _69  and  _70
REMARK   29  A    between atoms: _69  and  _72
REMARK   30  A    between atoms: _72  and  _73
REMARK   31  A    between atoms: _76  and  _78
REMARK   32  A    between atoms: _78  and  _79
REMARK   33  A    between atoms: _81  and  _83
REMARK   34  A    between atoms: _83  and  _84
REMARK   35  A    between atoms: _83  and  _86
REMARK   36  A    between atoms: _86  and  _87
REMARK   37  A    between atoms: _91  and  _92
REMARK   38  A    between atoms: _97  and  _99
REMARK   39  A    between atoms: _99  and  _100
REMARK   40  A    between atoms: _99  and  _102
REMARK   41  A    between atoms: _102  and  _103
REMARK   42  A    between atoms: _105  and  _107
REMARK   43  A    between atoms: _107  and  _108
REMARK   44  A    between atoms: _107  and  _110
REMARK   45  A    between atoms: _110  and  _111
REMARK   46  A    between atoms: _114  and  _116
REMARK   47  A    between atoms: _116  and  _117
REMARK   48  A    between atoms: _116  and  _119
REMARK   49  A    between atoms: _119  and  _120
REMARK   50  A    between atoms: _125  and  _126
REMARK   51  A    between atoms: _128  and  _130
REMARK   52  A    between atoms: _130  and  _131
REMARK   53  A    between atoms: _130  and  _133
REMARK   54  A    between atoms: _133  and  _134
REMARK   55  A    between atoms: _136  and  _138
REMARK   56  A    between atoms: _138  and  _139
REMARK   57  A    between atoms: _138  and  _141
REMARK   58  A    between atoms: _141  and  _142
REMARK   59  A    between atoms: _145  and  _147
REMARK   60  A    between atoms: _147  and  _148
REMARK   61  A    between atoms: _147  and  _150
REMARK   62  A    between atoms: _150  and  _151
REMARK   63  A    between atoms: _157  and  _159
REMARK   64  A    between atoms: _159  and  _160
REMARK   65  A    between atoms: _162  and  _164
REMARK   66  A    between atoms: _164  and  _165
REMARK   67  A    between atoms: _164  and  _167
REMARK   68  A    between atoms: _170  and  _172
REMARK   69  A    between atoms: _172  and  _173
REMARK   70  A    between atoms: _172  and  _175
REMARK   71  A    between atoms: _175  and  _176
REMARK   72  A    between atoms: _179  and  _181
REMARK   73  A    between atoms: _181  and  _182
REMARK   74  A    between atoms: _181  and  _184
REMARK   75  A    between atoms: _184  and  _185
REMARK   76  A    between atoms: _187  and  _189
REMARK   77  A    between atoms: _189  and  _190
REMARK   78  A    between atoms: _189  and  _192
REMARK   79  A    between atoms: _192  and  _193
REMARK   80  A    between atoms: _199  and  _201
REMARK   81  A    between atoms: _201  and  _202
REMARK   82  A    between atoms: _201  and  _204
REMARK   83  A    between atoms: _204  and  _205
REMARK   84  A    between atoms: _208  and  _210
REMARK   85  A    between atoms: _210  and  _211
REMARK   86  A    between atoms: _214  and  _216
REMARK   87  A    between atoms: _216  and  _217
REMARK   88  A    between atoms: _216  and  _219
REMARK   89  A    between atoms: _221  and  _223
REMARK   90  A    between atoms: _223  and  _224
REMARK   91  A    between atoms: _223  and  _226
REMARK   92  A    between atoms: _226  and  _227
REMARK   93  A    between atoms: _230  and  _232
REMARK   94  A    between atoms: _232  and  _233
REMARK   95  A    between atoms: _232  and  _235
REMARK   96  A    between atoms: _239  and  _240
REMARK   97  A    between atoms: _245  and  _247
REMARK   98  A    between atoms: _247  and  _248
REMARK   99  A    between atoms: _247  and  _250
REMARK  100  A    between atoms: _253  and  _255
REMARK  101  A    between atoms: _255  and  _256
REMARK  102  A    between atoms: _255  and  _258
REMARK  103  A    between atoms: _258  and  _259
REMARK  104  A    between atoms: _262  and  _264
REMARK  105  A    between atoms: _264  and  _265
REMARK  106  A    between atoms: _264  and  _267
REMARK  107  A    between atoms: _267  and  _268
REMARK  108  A    between atoms: _268  and  _269
REMARK  109  A    between atoms: _271  and  _273
REMARK  110  A    between atoms: _273  and  _274
REMARK  111  A    between atoms: _273  and  _276
REMARK  112  A    between atoms: _276  and  _277
REMARK  113  A    between atoms: _277  and  _278
REMARK  114  A    between atoms: _278  and  _279
REMARK  115  A    between atoms: _279  and  _280
REMARK  116  A    between atoms: _284  and  _286
REMARK  117  A    between atoms: _286  and  _287
REMARK  118  A    between atoms: _286  and  _289
REMARK  119  A    between atoms: _289  and  _290
REMARK  120  A    between atoms: _293  and  _295
REMARK  121  A    between atoms: _295  and  _296
REMARK  122  A    between atoms: _295  and  _298
REMARK  123  A    between atoms: _298  and  _299
REMARK  124  A    between atoms: _301  and  _303
REMARK  125  A    between atoms: _303  and  _304
REMARK  126  A    between atoms: _303  and  _306
REMARK  127  A    between atoms: _306  and  _307
REMARK  128  A    between atoms: _307  and  _308
REMARK  129  A    between atoms: _308  and  _309
REMARK  130  A    between atoms: _318  and  _320
REMARK  131  A    between atoms: _320  and  _321
REMARK  132  A    between atoms: _320  and  _323
REMARK  133  A    between atoms: _323  and  _324
REMARK  134  A    between atoms: _329  and  _331
REMARK  135  A    between atoms: _331  and  _332
REMARK  136  A    between atoms: _331  and  _334
REMARK  137  A    between atoms: _334  and  _335
REMARK  138  A    between atoms: _337  and  _339
REMARK  139  A    between atoms: _339  and  _340
REMARK  140  A    between atoms: _339  and  _342
REMARK  141  A    between atoms: _345  and  _347
REMARK  142  A    between atoms: _347  and  _348
REMARK  143  A    between atoms: _351  and  _353
REMARK  144  A    between atoms: _353  and  _354
REMARK  145  A    between atoms: _353  and  _356
REMARK  146  A    between atoms: _356  and  _357
REMARK  147  A    between atoms: _362  and  _364
REMARK  148  A    between atoms: _364  and  _365
REMARK  149  A    between atoms: _364  and  _367
REMARK  150  A    between atoms: _369  and  _371
REMARK  151  A    between atoms: _371  and  _372
REMARK  152  A    between atoms: _371  and  _374
REMARK  153  A    between atoms: _374  and  _375
REMARK  154  A    between atoms: _377  and  _379
REMARK  155  A    between atoms: _379  and  _380
REMARK  156  A    between atoms: _379  and  _382
REMARK  157  A    between atoms: _382  and  _383
REMARK  158  A    between atoms: _383  and  _384
REMARK  159  A    between atoms: _386  and  _388
REMARK  160  A    between atoms: _388  and  _389
REMARK  161  A    between atoms: _388  and  _391
REMARK  162  A    between atoms: _391  and  _392
REMARK  163  A    between atoms: _392  and  _393
REMARK  164  A    between atoms: _396  and  _398
REMARK  165  A    between atoms: _398  and  _399
REMARK  166  A    between atoms: _398  and  _401
REMARK  167  A    between atoms: _404  and  _406
REMARK  168  A    between atoms: _406  and  _407
REMARK  169  A    between atoms: _409  and  _411
REMARK  170  A    between atoms: _411  and  _412
REMARK  171  A    between atoms: _414  and  _416
REMARK  172  A    between atoms: _416  and  _417
REMARK  173  A    between atoms: _416  and  _419
REMARK  174  A    between atoms: _419  and  _420
REMARK  175  A    between atoms: _425  and  _426
REMARK  176  A    between atoms: _428  and  _430
REMARK  177  A    between atoms: _430  and  _431
REMARK  178  A    between atoms: _430  and  _433
REMARK  179  A    between atoms: _433  and  _434
REMARK  180  A    between atoms: _437  and  _439
REMARK  181  A    between atoms: _439  and  _440
REMARK  182  A    between atoms: _443  and  _445
REMARK  183  A    between atoms: _445  and  _446
REMARK  184  A    between atoms: _445  and  _448
REMARK  185  A    between atoms: _448  and  _449
REMARK  186  A    between atoms: _452  and  _454
REMARK  187  A    between atoms: _454  and  _455
REMARK  188  A    between atoms: _454  and  _457
REMARK  189  A    between atoms: _457  and  _458
REMARK  190  A    between atoms: _461  and  _463
REMARK  191  A    between atoms: _463  and  _464
REMARK  192  A    between atoms: _463  and  _466
REMARK  193  A    between atoms: _466  and  _467
REMARK  194  A    between atoms: _470  and  _472
REMARK  195  A    between atoms: _472  and  _473
REMARK  196  A    between atoms: _472  and  _475
REMARK  197  A    between atoms: _478  and  _480
REMARK  198  A    between atoms: _480  and  _481
REMARK                            x       y       z     vdW  Elec       q    Type
REMARK                         _______ _______ _______ _____ _____    ______ ____
ROOT
ATOM      1  O   HOH     1     -17.477  35.038   0.922  0.00  0.00    +0.000 OA
ENDROOT
TORSDOF 0
REMARK  Name = ../refined-set-2016/2qbu/2qbu_pocket.pdb
REMARK  198 active torsions:
REMARK  status: ('A' for Active; 'I' for Inactive)
REMARK    1  A    between atoms: _1  and  _3
REMARK    2  A    between atoms: _3  and  _4
REMARK    3  A    between atoms: _6  and  _8
REMARK    4  A    between atoms: _8  and  _9
REMARK    5  A    between atoms: _8  and  _11
REMARK    6  A    between atoms: _14  and  _16
REMARK    7  A    between atoms: _16  and  _17
REMARK    8  A    between atoms: _20  and  _21
REMARK    9  A    between atoms: _26  and  _28
REMARK   10  A    between atoms: _28  and  _29
REMARK   11  A    between atoms: _31  and  _33
REMARK   12  A    between atoms: _33  and  _34
REMARK   13  A    between atoms: _33  and  _36
REMARK   14  A    between atoms: _36  and  _37
REMARK   15  A    between atoms: _40  and  _42
REMARK   16  A    between atoms: _42  and  _43
REMARK   17  A    between atoms: _42  and  _45
REMARK   18  A    between atoms: _45  and  _46
REMARK   19  A    between atoms: _49  and  _51
REMARK   20  A    between atoms: _51  and  _52
REMARK   21  A    between atoms: _51  and  _54
REMARK   22  A    between atoms: _54  and  _55
REMARK   23  A    between atoms: _58  and  _60
REMARK   24  A    between atoms: _60  and  _61
REMARK   25  A    between atoms: _60  and  _63
REMARK   26  A    between atoms: _63  and  _64
REMARK   27  A    between atoms: _67  and  _69
REMARK   28  A    between atoms: _69  and  _70
REMARK   29  A    between atoms: _69  and  _72
REMARK   30  A    between atoms: _72  and  _73
REMARK   31  A    between atoms: _76  and  _78
REMARK   32  A    between atoms: _78  and  _79
REMARK   33  A    between atoms: _81  and  _83
REMARK   34  A    between atoms: _83  and  _84
REMARK   35  A    between atoms: _83  and  _86
REMARK   36  A    between atoms: _86  and  _87
REMARK   37  A    between atoms: _91  and  _92
REMARK   38  A    between atoms: _97  and  _99
REMARK   39  A    between atoms: _99  and  _100
REMARK   40  A    between atoms: _99  and  _102
REMARK   41  A    between atoms: _102  and  _103
REMARK   42  A    between atoms: _105  and  _107
REMARK   43  A    between atoms: _107  and  _108
REMARK   44  A    between atoms: _107  and  _110
REMARK   45  A    between atoms: _110  and  _111
REMARK   46  A    between atoms: _114  and  _116
REMARK   47  A    between atoms: _116  and  _117
REMARK   48  A    between atoms: _116  and  _119
REMARK   49  A    between atoms: _119  and  _120
REMARK   50  A    between atoms: _125  and  _126
REMARK   51  A    between atoms: _128  and  _130
REMARK   52  A    between atoms: _130  and  _131
REMARK   53  A    between atoms: _130  and  _133
REMARK   54  A    between atoms: _133  and  _134
REMARK   55  A    between atoms: _136  and  _138
REMARK   56  A    between atoms: _138  and  _139
REMARK   57  A    between atoms: _138  and  _141
REMARK   58  A    between atoms: _141  and  _142
REMARK   59  A    between atoms: _145  and  _147
REMARK   60  A    between atoms: _147  and  _148
REMARK   61  A    between atoms: _147  and  _150
REMARK   62  A    between atoms: _150  and  _151
REMARK   63  A    between atoms: _157  and  _159
REMARK   64  A    between atoms: _159  and  _160
REMARK   65  A    between atoms: _162  and  _164
REMARK   66  A    between atoms: _164  and  _165
REMARK   67  A    between atoms: _164  and  _167
REMARK   68  A    between atoms: _170  and  _172
REMARK   69  A    between atoms: _172  and  _173
REMARK   70  A    between atoms: _172  and  _175
REMARK   71  A    between atoms: _175  and  _176
REMARK   72  A    between atoms: _179  and  _181
REMARK   73  A    between atoms: _181  and  _182
REMARK   74  A    between atoms: _181  and  _184
REMARK   75  A    between atoms: _184  and  _185
REMARK   76  A    between atoms: _187  and  _189
REMARK   77  A    between atoms: _189  and  _190
REMARK   78  A    between atoms: _189  and  _192
REMARK   79  A    between atoms: _192  and  _193
REMARK   80  A    between atoms: _199  and  _201
REMARK   81  A    between atoms: _201  and  _202
REMARK   82  A    between atoms: _201  and  _204
REMARK   83  A    between atoms: _204  and  _205
REMARK   84  A    between atoms: _208  and  _210
REMARK   85  A    between atoms: _210  and  _211
REMARK   86  A    between atoms: _214  and  _216
REMARK   87  A    between atoms: _216  and  _217
REMARK   88  A    between atoms: _216  and  _219
REMARK   89  A    between atoms: _221  and  _223
REMARK   90  A    between atoms: _223  and  _224
REMARK   91  A    between atoms: _223  and  _226
REMARK   92  A    between atoms: _226  and  _227
REMARK   93  A    between atoms: _230  and  _232
REMARK   94  A    between atoms: _232  and  _233
REMARK   95  A    between atoms: _232  and  _235
REMARK   96  A    between atoms: _239  and  _240
REMARK   97  A    between atoms: _245  and  _247
REMARK   98  A    between atoms: _247  and  _248
REMARK   99  A    between atoms: _247  and  _250
REMARK  100  A    between atoms: _253  and  _255
REMARK  101  A    between atoms: _255  and  _256
REMARK  102  A    between atoms: _255  and  _258
REMARK  103  A    between atoms: _258  and  _259
REMARK  104  A    between atoms: _262  and  _264
REMARK  105  A    between atoms: _264  and  _265
REMARK  106  A    between atoms: _264  and  _267
REMARK  107  A    between atoms: _267  and  _268
REMARK  108  A    between atoms: _268  and  _269
REMARK  109  A    between atoms: _271  and  _273
REMARK  110  A    between atoms: _273  and  _274
REMARK  111  A    between atoms: _273  and  _276
REMARK  112  A    between atoms: _276  and  _277
REMARK  113  A    between atoms: _277  and  _278
REMARK  114  A    between atoms: _278  and  _279
REMARK  115  A    between atoms: _279  and  _280
REMARK  116  A    between atoms: _284  and  _286
REMARK  117  A    between atoms: _286  and  _287
REMARK  118  A    between atoms: _286  and  _289
REMARK  119  A    between atoms: _289  and  _290
REMARK  120  A    between atoms: _293  and  _295
REMARK  121  A    between atoms: _295  and  _296
REMARK  122  A    between atoms: _295  and  _298
REMARK  123  A    between atoms: _298  and  _299
REMARK  124  A    between atoms: _301  and  _303
REMARK  125  A    between atoms: _303  and  _304
REMARK  126  A    between atoms: _303  and  _306
REMARK  127  A    between atoms: _306  and  _307
REMARK  128  A    between atoms: _307  and  _308
REMARK  129  A    between atoms: _308  and  _309
REMARK  130  A    between atoms: _318  and  _320
REMARK  131  A    between atoms: _320  and  _321
REMARK  132  A    between atoms: _320  and  _323
REMARK  133  A    between atoms: _323  and  _324
REMARK  134  A    between atoms: _329  and  _331
REMARK  135  A    between atoms: _331  and  _332
REMARK  136  A    between atoms: _331  and  _334
REMARK  137  A    between atoms: _334  and  _335
REMARK  138  A    between atoms: _337  and  _339
REMARK  139  A    between atoms: _339  and  _340
REMARK  140  A    between atoms: _339  and  _342
REMARK  141  A    between atoms: _345  and  _347
REMARK  142  A    between atoms: _347  and  _348
REMARK  143  A    between atoms: _351  and  _353
REMARK  144  A    between atoms: _353  and  _354
REMARK  145  A    between atoms: _353  and  _356
REMARK  146  A    between atoms: _356  and  _357
REMARK  147  A    between atoms: _362  and  _364
REMARK  148  A    between atoms: _364  and  _365
REMARK  149  A    between atoms: _364  and  _367
REMARK  150  A    between atoms: _369  and  _371
REMARK  151  A    between atoms: _371  and  _372
REMARK  152  A    between atoms: _371  and  _374
REMARK  153  A    between atoms: _374  and  _375
REMARK  154  A    between atoms: _377  and  _379
REMARK  155  A    between atoms: _379  and  _380
REMARK  156  A    between atoms: _379  and  _382
REMARK  157  A    between atoms: _382  and  _383
REMARK  158  A    between atoms: _383  and  _384
REMARK  159  A    between atoms: _386  and  _388
REMARK  160  A    between atoms: _388  and  _389
REMARK  161  A    between atoms: _388  and  _391
REMARK  162  A    between atoms: _391  and  _392
REMARK  163  A    between atoms: _392  and  _393
REMARK  164  A    between atoms: _396  and  _398
REMARK  165  A    between atoms: _398  and  _399
REMARK  166  A    between atoms: _398  and  _401
REMARK  167  A    between atoms: _404  and  _406
REMARK  168  A    between atoms: _406  and  _407
REMARK  169  A    between atoms: _409  and  _411
REMARK  170  A    between atoms: _411  and  _412
REMARK  171  A    between atoms: _414  and  _416
REMARK  172  A    between atoms: _416  and  _417
REMARK  173  A    between atoms: _416  and  _419
REMARK  174  A    between atoms: _419  and  _420
REMARK  175  A    between atoms: _425  and  _426
REMARK  176  A    between atoms: _428  and  _430
REMARK  177  A    between atoms: _430  and  _431
REMARK  178  A    between atoms: _430  and  _433
REMARK  179  A    between atoms: _433  and  _434
REMARK  180  A    between atoms: _437  and  _439
REMARK  181  A    between atoms: _439  and  _440
REMARK  182  A    between atoms: _443  and  _445
REMARK  183  A    between atoms: _445  and  _446
REMARK  184  A    between atoms: _445  and  _448
REMARK  185  A    between atoms: _448  and  _449
REMARK  186  A    between atoms: _452  and  _454
REMARK  187  A    between atoms: _454  and  _455
REMARK  188  A    between atoms: _454  and  _457
REMARK  189  A    between atoms: _457  and  _458
REMARK  190  A    between atoms: _461  and  _463
REMARK  191  A    between atoms: _463  and  _464
REMARK  192  A    between atoms: _463  and  _466
REMARK  193  A    between atoms: _466  and  _467
REMARK  194  A    between atoms: _470  and  _472
REMARK  195  A    between atoms: _472  and  _473
REMARK  196  A    between atoms: _472  and  _475
REMARK  197  A    between atoms: _478  and  _480
REMARK  198  A    between atoms: _480  and  _481
REMARK                            x       y       z     vdW  Elec       q    Type
REMARK                         _______ _______ _______ _____ _____    ______ ____
ROOT
ATOM      1  O   HOH     1     -20.502  39.790  -2.001  0.00  0.00    +0.000 OA
ENDROOT
TORSDOF 0
REMARK  Name = ../refined-set-2016/2qbu/2qbu_pocket.pdb
REMARK  198 active torsions:
REMARK  status: ('A' for Active; 'I' for Inactive)
REMARK    1  A    between atoms: _1  and  _3
REMARK    2  A    between atoms: _3  and  _4
REMARK    3  A    between atoms: _6  and  _8
REMARK    4  A    between atoms: _8  and  _9
REMARK    5  A    between atoms: _8  and  _11
REMARK    6  A    between atoms: _14  and  _16
REMARK    7  A    between atoms: _16  and  _17
REMARK    8  A    between atoms: _20  and  _21
REMARK    9  A    between atoms: _26  and  _28
REMARK   10  A    between atoms: _28  and  _29
REMARK   11  A    between atoms: _31  and  _33
REMARK   12  A    between atoms: _33  and  _34
REMARK   13  A    between atoms: _33  and  _36
REMARK   14  A    between atoms: _36  and  _37
REMARK   15  A    between atoms: _40  and  _42
REMARK   16  A    between atoms: _42  and  _43
REMARK   17  A    between atoms: _42  and  _45
REMARK   18  A    between atoms: _45  and  _46
REMARK   19  A    between atoms: _49  and  _51
REMARK   20  A    between atoms: _51  and  _52
REMARK   21  A    between atoms: _51  and  _54
REMARK   22  A    between atoms: _54  and  _55
REMARK   23  A    between atoms: _58  and  _60
REMARK   24  A    between atoms: _60  and  _61
REMARK   25  A    between atoms: _60  and  _63
REMARK   26  A    between atoms: _63  and  _64
REMARK   27  A    between atoms: _67  and  _69
REMARK   28  A    between atoms: _69  and  _70
REMARK   29  A    between atoms: _69  and  _72
REMARK   30  A    between atoms: _72  and  _73
REMARK   31  A    between atoms: _76  and  _78
REMARK   32  A    between atoms: _78  and  _79
REMARK   33  A    between atoms: _81  and  _83
REMARK   34  A    between atoms: _83  and  _84
REMARK   35  A    between atoms: _83  and  _86
REMARK   36  A    between atoms: _86  and  _87
REMARK   37  A    between atoms: _91  and  _92
REMARK   38  A    between atoms: _97  and  _99
REMARK   39  A    between atoms: _99  and  _100
REMARK   40  A    between atoms: _99  and  _102
REMARK   41  A    between atoms: _102  and  _103
REMARK   42  A    between atoms: _105  and  _107
REMARK   43  A    between atoms: _107  and  _108
REMARK   44  A    between atoms: _107  and  _110
REMARK   45  A    between atoms: _110  and  _111
REMARK   46  A    between atoms: _114  and  _116
REMARK   47  A    between atoms: _116  and  _117
REMARK   48  A    between atoms: _116  and  _119
REMARK   49  A    between atoms: _119  and  _120
REMARK   50  A    between atoms: _125  and  _126
REMARK   51  A    between atoms: _128  and  _130
REMARK   52  A    between atoms: _130  and  _131
REMARK   53  A    between atoms: _130  and  _133
REMARK   54  A    between atoms: _133  and  _134
REMARK   55  A    between atoms: _136  and  _138
REMARK   56  A    between atoms: _138  and  _139
REMARK   57  A    between atoms: _138  and  _141
REMARK   58  A    between atoms: _141  and  _142
REMARK   59  A    between atoms: _145  and  _147
REMARK   60  A    between atoms: _147  and  _148
REMARK   61  A    between atoms: _147  and  _150
REMARK   62  A    between atoms: _150  and  _151
REMARK   63  A    between atoms: _157  and  _159
REMARK   64  A    between atoms: _159  and  _160
REMARK   65  A    between atoms: _162  and  _164
REMARK   66  A    between atoms: _164  and  _165
REMARK   67  A    between atoms: _164  and  _167
REMARK   68  A    between atoms: _170  and  _172
REMARK   69  A    between atoms: _172  and  _173
REMARK   70  A    between atoms: _172  and  _175
REMARK   71  A    between atoms: _175  and  _176
REMARK   72  A    between atoms: _179  and  _181
REMARK   73  A    between atoms: _181  and  _182
REMARK   74  A    between atoms: _181  and  _184
REMARK   75  A    between atoms: _184  and  _185
REMARK   76  A    between atoms: _187  and  _189
REMARK   77  A    between atoms: _189  and  _190
REMARK   78  A    between atoms: _189  and  _192
REMARK   79  A    between atoms: _192  and  _193
REMARK   80  A    between atoms: _199  and  _201
REMARK   81  A    between atoms: _201  and  _202
REMARK   82  A    between atoms: _201  and  _204
REMARK   83  A    between atoms: _204  and  _205
REMARK   84  A    between atoms: _208  and  _210
REMARK   85  A    between atoms: _210  and  _211
REMARK   86  A    between atoms: _214  and  _216
REMARK   87  A    between atoms: _216  and  _217
REMARK   88  A    between atoms: _216  and  _219
REMARK   89  A    between atoms: _221  and  _223
REMARK   90  A    between atoms: _223  and  _224
REMARK   91  A    between atoms: _223  and  _226
REMARK   92  A    between atoms: _226  and  _227
REMARK   93  A    between atoms: _230  and  _232
REMARK   94  A    between atoms: _232  and  _233
REMARK   95  A    between atoms: _232  and  _235
REMARK   96  A    between atoms: _239  and  _240
REMARK   97  A    between atoms: _245  and  _247
REMARK   98  A    between atoms: _247  and  _248
REMARK   99  A    between atoms: _247  and  _250
REMARK  100  A    between atoms: _253  and  _255
REMARK  101  A    between atoms: _255  and  _256
REMARK  102  A    between atoms: _255  and  _258
REMARK  103  A    between atoms: _258  and  _259
REMARK  104  A    between atoms: _262  and  _264
REMARK  105  A    between atoms: _264  and  _265
REMARK  106  A    between atoms: _264  and  _267
REMARK  107  A    between atoms: _267  and  _268
REMARK  108  A    between atoms: _268  and  _269
REMARK  109  A    between atoms: _271  and  _273
REMARK  110  A    between atoms: _273  and  _274
REMARK  111  A    between atoms: _273  and  _276
REMARK  112  A    between atoms: _276  and  _277
REMARK  113  A    between atoms: _277  and  _278
REMARK  114  A    between atoms: _278  and  _279
REMARK  115  A    between atoms: _279  and  _280
REMARK  116  A    between atoms: _284  and  _286
REMARK  117  A    between atoms: _286  and  _287
REMARK  118  A    between atoms: _286  and  _289
REMARK  119  A    between atoms: _289  and  _290
REMARK  120  A    between atoms: _293  and  _295
REMARK  121  A    between atoms: _295  and  _296
REMARK  122  A    between atoms: _295  and  _298
REMARK  123  A    between atoms: _298  and  _299
REMARK  124  A    between atoms: _301  and  _303
REMARK  125  A    between atoms: _303  and  _304
REMARK  126  A    between atoms: _303  and  _306
REMARK  127  A    between atoms: _306  and  _307
REMARK  128  A    between atoms: _307  and  _308
REMARK  129  A    between atoms: _308  and  _309
REMARK  130  A    between atoms: _318  and  _320
REMARK  131  A    between atoms: _320  and  _321
REMARK  132  A    between atoms: _320  and  _323
REMARK  133  A    between atoms: _323  and  _324
REMARK  134  A    between atoms: _329  and  _331
REMARK  135  A    between atoms: _331  and  _332
REMARK  136  A    between atoms: _331  and  _334
REMARK  137  A    between atoms: _334  and  _335
REMARK  138  A    between atoms: _337  and  _339
REMARK  139  A    between atoms: _339  and  _340
REMARK  140  A    between atoms: _339  and  _342
REMARK  141  A    between atoms: _345  and  _347
REMARK  142  A    between atoms: _347  and  _348
REMARK  143  A    between atoms: _351  and  _353
REMARK  144  A    between atoms: _353  and  _354
REMARK  145  A    between atoms: _353  and  _356
REMARK  146  A    between atoms: _356  and  _357
REMARK  147  A    between atoms: _362  and  _364
REMARK  148  A    between atoms: _364  and  _365
REMARK  149  A    between atoms: _364  and  _367
REMARK  150  A    between atoms: _369  and  _371
REMARK  151  A    between atoms: _371  and  _372
REMARK  152  A    between atoms: _371  and  _374
REMARK  153  A    between atoms: _374  and  _375
REMARK  154  A    between atoms: _377  and  _379
REMARK  155  A    between atoms: _379  and  _380
REMARK  156  A    between atoms: _379  and  _382
REMARK  157  A    between atoms: _382  and  _383
REMARK  158  A    between atoms: _383  and  _384
REMARK  159  A    between atoms: _386  and  _388
REMARK  160  A    between atoms: _388  and  _389
REMARK  161  A    between atoms: _388  and  _391
REMARK  162  A    between atoms: _391  and  _392
REMARK  163  A    between atoms: _392  and  _393
REMARK  164  A    between atoms: _396  and  _398
REMARK  165  A    between atoms: _398  and  _399
REMARK  166  A    between atoms: _398  and  _401
REMARK  167  A    between atoms: _404  and  _406
REMARK  168  A    between atoms: _406  and  _407
REMARK  169  A    between atoms: _409  and  _411
REMARK  170  A    between atoms: _411  and  _412
REMARK  171  A    between atoms: _414  and  _416
REMARK  172  A    between atoms: _416  and  _417
REMARK  173  A    between atoms: _416  and  _419
REMARK  174  A    between atoms: _419  and  _420
REMARK  175  A    between atoms: _425  and  _426
REMARK  176  A    between atoms: _428  and  _430
REMARK  177  A    between atoms: _430  and  _431
REMARK  178  A    between atoms: _430  and  _433
REMARK  179  A    between atoms: _433  and  _434
REMARK  180  A    between atoms: _437  and  _439
REMARK  181  A    between atoms: _439  and  _440
REMARK  182  A    between atoms: _443  and  _445
REMARK  183  A    between atoms: _445  and  _446
REMARK  184  A    between atoms: _445  and  _448
REMARK  185  A    between atoms: _448  and  _449
REMARK  186  A    between atoms: _452  and  _454
REMARK  187  A    between atoms: _454  and  _455
REMARK  188  A    between atoms: _454  and  _457
REMARK  189  A    between atoms: _457  and  _458
REMARK  190  A    between atoms: _461  and  _463
REMARK  191  A    between atoms: _463  and  _464
REMARK  192  A    between atoms: _463  and  _466
REMARK  193  A    between atoms: _466  and  _467
REMARK  194  A    between atoms: _470  and  _472
REMARK  195  A    between atoms: _472  and  _473
REMARK  196  A    between atoms: _472  and  _475
REMARK  197  A    between atoms: _478  and  _480
REMARK  198  A    between atoms: _480  and  _481
REMARK                            x       y       z     vdW  Elec       q    Type
REMARK                         _______ _______ _______ _____ _____    ______ ____
ROOT
ATOM      1  O   HOH     1     -15.583  33.390  -9.998  0.00  0.00    +0.000 OA
ENDROOT
TORSDOF 0
REMARK  Name = ../refined-set-2016/2qbu/2qbu_pocket.pdb
REMARK  198 active torsions:
REMARK  status: ('A' for Active; 'I' for Inactive)
REMARK    1  A    between atoms: _1  and  _3
REMARK    2  A    between atoms: _3  and  _4
REMARK    3  A    between atoms: _6  and  _8
REMARK    4  A    between atoms: _8  and  _9
REMARK    5  A    between atoms: _8  and  _11
REMARK    6  A    between atoms: _14  and  _16
REMARK    7  A    between atoms: _16  and  _17
REMARK    8  A    between atoms: _20  and  _21
REMARK    9  A    between atoms: _26  and  _28
REMARK   10  A    between atoms: _28  and  _29
REMARK   11  A    between atoms: _31  and  _33
REMARK   12  A    between atoms: _33  and  _34
REMARK   13  A    between atoms: _33  and  _36
REMARK   14  A    between atoms: _36  and  _37
REMARK   15  A    between atoms: _40  and  _42
REMARK   16  A    between atoms: _42  and  _43
REMARK   17  A    between atoms: _42  and  _45
REMARK   18  A    between atoms: _45  and  _46
REMARK   19  A    between atoms: _49  and  _51
REMARK   20  A    between atoms: _51  and  _52
REMARK   21  A    between atoms: _51  and  _54
REMARK   22  A    between atoms: _54  and  _55
REMARK   23  A    between atoms: _58  and  _60
REMARK   24  A    between atoms: _60  and  _61
REMARK   25  A    between atoms: _60  and  _63
REMARK   26  A    between atoms: _63  and  _64
REMARK   27  A    between atoms: _67  and  _69
REMARK   28  A    between atoms: _69  and  _70
REMARK   29  A    between atoms: _69  and  _72
REMARK   30  A    between atoms: _72  and  _73
REMARK   31  A    between atoms: _76  and  _78
REMARK   32  A    between atoms: _78  and  _79
REMARK   33  A    between atoms: _81  and  _83
REMARK   34  A    between atoms: _83  and  _84
REMARK   35  A    between atoms: _83  and  _86
REMARK   36  A    between atoms: _86  and  _87
REMARK   37  A    between atoms: _91  and  _92
REMARK   38  A    between atoms: _97  and  _99
REMARK   39  A    between atoms: _99  and  _100
REMARK   40  A    between atoms: _99  and  _102
REMARK   41  A    between atoms: _102  and  _103
REMARK   42  A    between atoms: _105  and  _107
REMARK   43  A    between atoms: _107  and  _108
REMARK   44  A    between atoms: _107  and  _110
REMARK   45  A    between atoms: _110  and  _111
REMARK   46  A    between atoms: _114  and  _116
REMARK   47  A    between atoms: _116  and  _117
REMARK   48  A    between atoms: _116  and  _119
REMARK   49  A    between atoms: _119  and  _120
REMARK   50  A    between atoms: _125  and  _126
REMARK   51  A    between atoms: _128  and  _130
REMARK   52  A    between atoms: _130  and  _131
REMARK   53  A    between atoms: _130  and  _133
REMARK   54  A    between atoms: _133  and  _134
REMARK   55  A    between atoms: _136  and  _138
REMARK   56  A    between atoms: _138  and  _139
REMARK   57  A    between atoms: _138  and  _141
REMARK   58  A    between atoms: _141  and  _142
REMARK   59  A    between atoms: _145  and  _147
REMARK   60  A    between atoms: _147  and  _148
REMARK   61  A    between atoms: _147  and  _150
REMARK   62  A    between atoms: _150  and  _151
REMARK   63  A    between atoms: _157  and  _159
REMARK   64  A    between atoms: _159  and  _160
REMARK   65  A    between atoms: _162  and  _164
REMARK   66  A    between atoms: _164  and  _165
REMARK   67  A    between atoms: _164  and  _167
REMARK   68  A    between atoms: _170  and  _172
REMARK   69  A    between atoms: _172  and  _173
REMARK   70  A    between atoms: _172  and  _175
REMARK   71  A    between atoms: _175  and  _176
REMARK   72  A    between atoms: _179  and  _181
REMARK   73  A    between atoms: _181  and  _182
REMARK   74  A    between atoms: _181  and  _184
REMARK   75  A    between atoms: _184  and  _185
REMARK   76  A    between atoms: _187  and  _189
REMARK   77  A    between atoms: _189  and  _190
REMARK   78  A    between atoms: _189  and  _192
REMARK   79  A    between atoms: _192  and  _193
REMARK   80  A    between atoms: _199  and  _201
REMARK   81  A    between atoms: _201  and  _202
REMARK   82  A    between atoms: _201  and  _204
REMARK   83  A    between atoms: _204  and  _205
REMARK   84  A    between atoms: _208  and  _210
REMARK   85  A    between atoms: _210  and  _211
REMARK   86  A    between atoms: _214  and  _216
REMARK   87  A    between atoms: _216  and  _217
REMARK   88  A    between atoms: _216  and  _219
REMARK   89  A    between atoms: _221  and  _223
REMARK   90  A    between atoms: _223  and  _224
REMARK   91  A    between atoms: _223  and  _226
REMARK   92  A    between atoms: _226  and  _227
REMARK   93  A    between atoms: _230  and  _232
REMARK   94  A    between atoms: _232  and  _233
REMARK   95  A    between atoms: _232  and  _235
REMARK   96  A    between atoms: _239  and  _240
REMARK   97  A    between atoms: _245  and  _247
REMARK   98  A    between atoms: _247  and  _248
REMARK   99  A    between atoms: _247  and  _250
REMARK  100  A    between atoms: _253  and  _255
REMARK  101  A    between atoms: _255  and  _256
REMARK  102  A    between atoms: _255  and  _258
REMARK  103  A    between atoms: _258  and  _259
REMARK  104  A    between atoms: _262  and  _264
REMARK  105  A    between atoms: _264  and  _265
REMARK  106  A    between atoms: _264  and  _267
REMARK  107  A    between atoms: _267  and  _268
REMARK  108  A    between atoms: _268  and  _269
REMARK  109  A    between atoms: _271  and  _273
REMARK  110  A    between atoms: _273  and  _274
REMARK  111  A    between atoms: _273  and  _276
REMARK  112  A    between atoms: _276  and  _277
REMARK  113  A    between atoms: _277  and  _278
REMARK  114  A    between atoms: _278  and  _279
REMARK  115  A    between atoms: _279  and  _280
REMARK  116  A    between atoms: _284  and  _286
REMARK  117  A    between atoms: _286  and  _287
REMARK  118  A    between atoms: _286  and  _289
REMARK  119  A    between atoms: _289  and  _290
REMARK  120  A    between atoms: _293  and  _295
REMARK  121  A    between atoms: _295  and  _296
REMARK  122  A    between atoms: _295  and  _298
REMARK  123  A    between atoms: _298  and  _299
REMARK  124  A    between atoms: _301  and  _303
REMARK  125  A    between atoms: _303  and  _304
REMARK  126  A    between atoms: _303  and  _306
REMARK  127  A    between atoms: _306  and  _307
REMARK  128  A    between atoms: _307  and  _308
REMARK  129  A    between atoms: _308  and  _309
REMARK  130  A    between atoms: _318  and  _320
REMARK  131  A    between atoms: _320  and  _321
REMARK  132  A    between atoms: _320  and  _323
REMARK  133  A    between atoms: _323  and  _324
REMARK  134  A    between atoms: _329  and  _331
REMARK  135  A    between atoms: _331  and  _332
REMARK  136  A    between atoms: _331  and  _334
REMARK  137  A    between atoms: _334  and  _335
REMARK  138  A    between atoms: _337  and  _339
REMARK  139  A    between atoms: _339  and  _340
REMARK  140  A    between atoms: _339  and  _342
REMARK  141  A    between atoms: _345  and  _347
REMARK  142  A    between atoms: _347  and  _348
REMARK  143  A    between atoms: _351  and  _353
REMARK  144  A    between atoms: _353  and  _354
REMARK  145  A    between atoms: _353  and  _356
REMARK  146  A    between atoms: _356  and  _357
REMARK  147  A    between atoms: _362  and  _364
REMARK  148  A    between atoms: _364  and  _365
REMARK  149  A    between atoms: _364  and  _367
REMARK  150  A    between atoms: _369  and  _371
REMARK  151  A    between atoms: _371  and  _372
REMARK  152  A    between atoms: _371  and  _374
REMARK  153  A    between atoms: _374  and  _375
REMARK  154  A    between atoms: _377  and  _379
REMARK  155  A    between atoms: _379  and  _380
REMARK  156  A    between atoms: _379  and  _382
REMARK  157  A    between atoms: _382  and  _383
REMARK  158  A    between atoms: _383  and  _384
REMARK  159  A    between atoms: _386  and  _388
REMARK  160  A    between atoms: _388  and  _389
REMARK  161  A    between atoms: _388  and  _391
REMARK  162  A    between atoms: _391  and  _392
REMARK  163  A    between atoms: _392  and  _393
REMARK  164  A    between atoms: _396  and  _398
REMARK  165  A    between atoms: _398  and  _399
REMARK  166  A    between atoms: _398  and  _401
REMARK  167  A    between atoms: _404  and  _406
REMARK  168  A    between atoms: _406  and  _407
REMARK  169  A    between atoms: _409  and  _411
REMARK  170  A    between atoms: _411  and  _412
REMARK  171  A    between atoms: _414  and  _416
REMARK  172  A    between atoms: _416  and  _417
REMARK  173  A    between atoms: _416  and  _419
REMARK  174  A    between atoms: _419  and  _420
REMARK  175  A    between atoms: _425  and  _426
REMARK  176  A    between atoms: _428  and  _430
REMARK  177  A    between atoms: _430  and  _431
REMARK  178  A    between atoms: _430  and  _433
REMARK  179  A    between atoms: _433  and  _434
REMARK  180  A    between atoms: _437  and  _439
REMARK  181  A    between atoms: _439  and  _440
REMARK  182  A    between atoms: _443  and  _445
REMARK  183  A    between atoms: _445  and  _446
REMARK  184  A    between atoms: _445  and  _448
REMARK  185  A    between atoms: _448  and  _449
REMARK  186  A    between atoms: _452  and  _454
REMARK  187  A    between atoms: _454  and  _455
REMARK  188  A    between atoms: _454  and  _457
REMARK  189  A    between atoms: _457  and  _458
REMARK  190  A    between atoms: _461  and  _463
REMARK  191  A    between atoms: _463  and  _464
REMARK  192  A    between atoms: _463  and  _466
REMARK  193  A    between atoms: _466  and  _467
REMARK  194  A    between atoms: _470  and  _472
REMARK  195  A    between atoms: _472  and  _473
REMARK  196  A    between atoms: _472  and  _475
REMARK  197  A    between atoms: _478  and  _480
REMARK  198  A    between atoms: _480  and  _481
REMARK                            x       y       z     vdW  Elec       q    Type
REMARK                         _______ _______ _______ _____ _____    ______ ____
ROOT
ATOM      1  O   HOH     1     -18.078  38.530   2.025  0.00  0.00    +0.000 OA
ENDROOT
TORSDOF 0
REMARK  Name = ../refined-set-2016/2qbu/2qbu_pocket.pdb
REMARK  198 active torsions:
REMARK  status: ('A' for Active; 'I' for Inactive)
REMARK    1  A    between atoms: _1  and  _3
REMARK    2  A    between atoms: _3  and  _4
REMARK    3  A    between atoms: _6  and  _8
REMARK    4  A    between atoms: _8  and  _9
REMARK    5  A    between atoms: _8  and  _11
REMARK    6  A    between atoms: _14  and  _16
REMARK    7  A    between atoms: _16  and  _17
REMARK    8  A    between atoms: _20  and  _21
REMARK    9  A    between atoms: _26  and  _28
REMARK   10  A    between atoms: _28  and  _29
REMARK   11  A    between atoms: _31  and  _33
REMARK   12  A    between atoms: _33  and  _34
REMARK   13  A    between atoms: _33  and  _36
REMARK   14  A    between atoms: _36  and  _37
REMARK   15  A    between atoms: _40  and  _42
REMARK   16  A    between atoms: _42  and  _43
REMARK   17  A    between atoms: _42  and  _45
REMARK   18  A    between atoms: _45  and  _46
REMARK   19  A    between atoms: _49  and  _51
REMARK   20  A    between atoms: _51  and  _52
REMARK   21  A    between atoms: _51  and  _54
REMARK   22  A    between atoms: _54  and  _55
REMARK   23  A    between atoms: _58  and  _60
REMARK   24  A    between atoms: _60  and  _61
REMARK   25  A    between atoms: _60  and  _63
REMARK   26  A    between atoms: _63  and  _64
REMARK   27  A    between atoms: _67  and  _69
REMARK   28  A    between atoms: _69  and  _70
REMARK   29  A    between atoms: _69  and  _72
REMARK   30  A    between atoms: _72  and  _73
REMARK   31  A    between atoms: _76  and  _78
REMARK   32  A    between atoms: _78  and  _79
REMARK   33  A    between atoms: _81  and  _83
REMARK   34  A    between atoms: _83  and  _84
REMARK   35  A    between atoms: _83  and  _86
REMARK   36  A    between atoms: _86  and  _87
REMARK   37  A    between atoms: _91  and  _92
REMARK   38  A    between atoms: _97  and  _99
REMARK   39  A    between atoms: _99  and  _100
REMARK   40  A    between atoms: _99  and  _102
REMARK   41  A    between atoms: _102  and  _103
REMARK   42  A    between atoms: _105  and  _107
REMARK   43  A    between atoms: _107  and  _108
REMARK   44  A    between atoms: _107  and  _110
REMARK   45  A    between atoms: _110  and  _111
REMARK   46  A    between atoms: _114  and  _116
REMARK   47  A    between atoms: _116  and  _117
REMARK   48  A    between atoms: _116  and  _119
REMARK   49  A    between atoms: _119  and  _120
REMARK   50  A    between atoms: _125  and  _126
REMARK   51  A    between atoms: _128  and  _130
REMARK   52  A    between atoms: _130  and  _131
REMARK   53  A    between atoms: _130  and  _133
REMARK   54  A    between atoms: _133  and  _134
REMARK   55  A    between atoms: _136  and  _138
REMARK   56  A    between atoms: _138  and  _139
REMARK   57  A    between atoms: _138  and  _141
REMARK   58  A    between atoms: _141  and  _142
REMARK   59  A    between atoms: _145  and  _147
REMARK   60  A    between atoms: _147  and  _148
REMARK   61  A    between atoms: _147  and  _150
REMARK   62  A    between atoms: _150  and  _151
REMARK   63  A    between atoms: _157  and  _159
REMARK   64  A    between atoms: _159  and  _160
REMARK   65  A    between atoms: _162  and  _164
REMARK   66  A    between atoms: _164  and  _165
REMARK   67  A    between atoms: _164  and  _167
REMARK   68  A    between atoms: _170  and  _172
REMARK   69  A    between atoms: _172  and  _173
REMARK   70  A    between atoms: _172  and  _175
REMARK   71  A    between atoms: _175  and  _176
REMARK   72  A    between atoms: _179  and  _181
REMARK   73  A    between atoms: _181  and  _182
REMARK   74  A    between atoms: _181  and  _184
REMARK   75  A    between atoms: _184  and  _185
REMARK   76  A    between atoms: _187  and  _189
REMARK   77  A    between atoms: _189  and  _190
REMARK   78  A    between atoms: _189  and  _192
REMARK   79  A    between atoms: _192  and  _193
REMARK   80  A    between atoms: _199  and  _201
REMARK   81  A    between atoms: _201  and  _202
REMARK   82  A    between atoms: _201  and  _204
REMARK   83  A    between atoms: _204  and  _205
REMARK   84  A    between atoms: _208  and  _210
REMARK   85  A    between atoms: _210  and  _211
REMARK   86  A    between atoms: _214  and  _216
REMARK   87  A    between atoms: _216  and  _217
REMARK   88  A    between atoms: _216  and  _219
REMARK   89  A    between atoms: _221  and  _223
REMARK   90  A    between atoms: _223  and  _224
REMARK   91  A    between atoms: _223  and  _226
REMARK   92  A    between atoms: _226  and  _227
REMARK   93  A    between atoms: _230  and  _232
REMARK   94  A    between atoms: _232  and  _233
REMARK   95  A    between atoms: _232  and  _235
REMARK   96  A    between atoms: _239  and  _240
REMARK   97  A    between atoms: _245  and  _247
REMARK   98  A    between atoms: _247  and  _248
REMARK   99  A    between atoms: _247  and  _250
REMARK  100  A    between atoms: _253  and  _255
REMARK  101  A    between atoms: _255  and  _256
REMARK  102  A    between atoms: _255  and  _258
REMARK  103  A    between atoms: _258  and  _259
REMARK  104  A    between atoms: _262  and  _264
REMARK  105  A    between atoms: _264  and  _265
REMARK  106  A    between atoms: _264  and  _267
REMARK  107  A    between atoms: _267  and  _268
REMARK  108  A    between atoms: _268  and  _269
REMARK  109  A    between atoms: _271  and  _273
REMARK  110  A    between atoms: _273  and  _274
REMARK  111  A    between atoms: _273  and  _276
REMARK  112  A    between atoms: _276  and  _277
REMARK  113  A    between atoms: _277  and  _278
REMARK  114  A    between atoms: _278  and  _279
REMARK  115  A    between atoms: _279  and  _280
REMARK  116  A    between atoms: _284  and  _286
REMARK  117  A    between atoms: _286  and  _287
REMARK  118  A    between atoms: _286  and  _289
REMARK  119  A    between atoms: _289  and  _290
REMARK  120  A    between atoms: _293  and  _295
REMARK  121  A    between atoms: _295  and  _296
REMARK  122  A    between atoms: _295  and  _298
REMARK  123  A    between atoms: _298  and  _299
REMARK  124  A    between atoms: _301  and  _303
REMARK  125  A    between atoms: _303  and  _304
REMARK  126  A    between atoms: _303  and  _306
REMARK  127  A    between atoms: _306  and  _307
REMARK  128  A    between atoms: _307  and  _308
REMARK  129  A    between atoms: _308  and  _309
REMARK  130  A    between atoms: _318  and  _320
REMARK  131  A    between atoms: _320  and  _321
REMARK  132  A    between atoms: _320  and  _323
REMARK  133  A    between atoms: _323  and  _324
REMARK  134  A    between atoms: _329  and  _331
REMARK  135  A    between atoms: _331  and  _332
REMARK  136  A    between atoms: _331  and  _334
REMARK  137  A    between atoms: _334  and  _335
REMARK  138  A    between atoms: _337  and  _339
REMARK  139  A    between atoms: _339  and  _340
REMARK  140  A    between atoms: _339  and  _342
REMARK  141  A    between atoms: _345  and  _347
REMARK  142  A    between atoms: _347  and  _348
REMARK  143  A    between atoms: _351  and  _353
REMARK  144  A    between atoms: _353  and  _354
REMARK  145  A    between atoms: _353  and  _356
REMARK  146  A    between atoms: _356  and  _357
REMARK  147  A    between atoms: _362  and  _364
REMARK  148  A    between atoms: _364  and  _365
REMARK  149  A    between atoms: _364  and  _367
REMARK  150  A    between atoms: _369  and  _371
REMARK  151  A    between atoms: _371  and  _372
REMARK  152  A    between atoms: _371  and  _374
REMARK  153  A    between atoms: _374  and  _375
REMARK  154  A    between atoms: _377  and  _379
REMARK  155  A    between atoms: _379  and  _380
REMARK  156  A    between atoms: _379  and  _382
REMARK  157  A    between atoms: _382  and  _383
REMARK  158  A    between atoms: _383  and  _384
REMARK  159  A    between atoms: _386  and  _388
REMARK  160  A    between atoms: _388  and  _389
REMARK  161  A    between atoms: _388  and  _391
REMARK  162  A    between atoms: _391  and  _392
REMARK  163  A    between atoms: _392  and  _393
REMARK  164  A    between atoms: _396  and  _398
REMARK  165  A    between atoms: _398  and  _399
REMARK  166  A    between atoms: _398  and  _401
REMARK  167  A    between atoms: _404  and  _406
REMARK  168  A    between atoms: _406  and  _407
REMARK  169  A    between atoms: _409  and  _411
REMARK  170  A    between atoms: _411  and  _412
REMARK  171  A    between atoms: _414  and  _416
REMARK  172  A    between atoms: _416  and  _417
REMARK  173  A    between atoms: _416  and  _419
REMARK  174  A    between atoms: _419  and  _420
REMARK  175  A    between atoms: _425  and  _426
REMARK  176  A    between atoms: _428  and  _430
REMARK  177  A    between atoms: _430  and  _431
REMARK  178  A    between atoms: _430  and  _433
REMARK  179  A    between atoms: _433  and  _434
REMARK  180  A    between atoms: _437  and  _439
REMARK  181  A    between atoms: _439  and  _440
REMARK  182  A    between atoms: _443  and  _445
REMARK  183  A    between atoms: _445  and  _446
REMARK  184  A    between atoms: _445  and  _448
REMARK  185  A    between atoms: _448  and  _449
REMARK  186  A    between atoms: _452  and  _454
REMARK  187  A    between atoms: _454  and  _455
REMARK  188  A    between atoms: _454  and  _457
REMARK  189  A    between atoms: _457  and  _458
REMARK  190  A    between atoms: _461  and  _463
REMARK  191  A    between atoms: _463  and  _464
REMARK  192  A    between atoms: _463  and  _466
REMARK  193  A    between atoms: _466  and  _467
REMARK  194  A    between atoms: _470  and  _472
REMARK  195  A    between atoms: _472  and  _473
REMARK  196  A    between atoms: _472  and  _475
REMARK  197  A    between atoms: _478  and  _480
REMARK  198  A    between atoms: _480  and  _481
REMARK                            x       y       z     vdW  Elec       q    Type
REMARK                         _______ _______ _______ _____ _____    ______ ____
ROOT
ATOM      1  O   HOH     1     -14.177  40.078 -10.551  0.00  0.00    +0.000 OA
ENDROOT
TORSDOF 0
REMARK  Name = ../refined-set-2016/2qbu/2qbu_pocket.pdb
REMARK  198 active torsions:
REMARK  status: ('A' for Active; 'I' for Inactive)
REMARK    1  A    between atoms: _1  and  _3
REMARK    2  A    between atoms: _3  and  _4
REMARK    3  A    between atoms: _6  and  _8
REMARK    4  A    between atoms: _8  and  _9
REMARK    5  A    between atoms: _8  and  _11
REMARK    6  A    between atoms: _14  and  _16
REMARK    7  A    between atoms: _16  and  _17
REMARK    8  A    between atoms: _20  and  _21
REMARK    9  A    between atoms: _26  and  _28
REMARK   10  A    between atoms: _28  and  _29
REMARK   11  A    between atoms: _31  and  _33
REMARK   12  A    between atoms: _33  and  _34
REMARK   13  A    between atoms: _33  and  _36
REMARK   14  A    between atoms: _36  and  _37
REMARK   15  A    between atoms: _40  and  _42
REMARK   16  A    between atoms: _42  and  _43
REMARK   17  A    between atoms: _42  and  _45
REMARK   18  A    between atoms: _45  and  _46
REMARK   19  A    between atoms: _49  and  _51
REMARK   20  A    between atoms: _51  and  _52
REMARK   21  A    between atoms: _51  and  _54
REMARK   22  A    between atoms: _54  and  _55
REMARK   23  A    between atoms: _58  and  _60
REMARK   24  A    between atoms: _60  and  _61
REMARK   25  A    between atoms: _60  and  _63
REMARK   26  A    between atoms: _63  and  _64
REMARK   27  A    between atoms: _67  and  _69
REMARK   28  A    between atoms: _69  and  _70
REMARK   29  A    between atoms: _69  and  _72
REMARK   30  A    between atoms: _72  and  _73
REMARK   31  A    between atoms: _76  and  _78
REMARK   32  A    between atoms: _78  and  _79
REMARK   33  A    between atoms: _81  and  _83
REMARK   34  A    between atoms: _83  and  _84
REMARK   35  A    between atoms: _83  and  _86
REMARK   36  A    between atoms: _86  and  _87
REMARK   37  A    between atoms: _91  and  _92
REMARK   38  A    between atoms: _97  and  _99
REMARK   39  A    between atoms: _99  and  _100
REMARK   40  A    between atoms: _99  and  _102
REMARK   41  A    between atoms: _102  and  _103
REMARK   42  A    between atoms: _105  and  _107
REMARK   43  A    between atoms: _107  and  _108
REMARK   44  A    between atoms: _107  and  _110
REMARK   45  A    between atoms: _110  and  _111
REMARK   46  A    between atoms: _114  and  _116
REMARK   47  A    between atoms: _116  and  _117
REMARK   48  A    between atoms: _116  and  _119
REMARK   49  A    between atoms: _119  and  _120
REMARK   50  A    between atoms: _125  and  _126
REMARK   51  A    between atoms: _128  and  _130
REMARK   52  A    between atoms: _130  and  _131
REMARK   53  A    between atoms: _130  and  _133
REMARK   54  A    between atoms: _133  and  _134
REMARK   55  A    between atoms: _136  and  _138
REMARK   56  A    between atoms: _138  and  _139
REMARK   57  A    between atoms: _138  and  _141
REMARK   58  A    between atoms: _141  and  _142
REMARK   59  A    between atoms: _145  and  _147
REMARK   60  A    between atoms: _147  and  _148
REMARK   61  A    between atoms: _147  and  _150
REMARK   62  A    between atoms: _150  and  _151
REMARK   63  A    between atoms: _157  and  _159
REMARK   64  A    between atoms: _159  and  _160
REMARK   65  A    between atoms: _162  and  _164
REMARK   66  A    between atoms: _164  and  _165
REMARK   67  A    between atoms: _164  and  _167
REMARK   68  A    between atoms: _170  and  _172
REMARK   69  A    between atoms: _172  and  _173
REMARK   70  A    between atoms: _172  and  _175
REMARK   71  A    between atoms: _175  and  _176
REMARK   72  A    between atoms: _179  and  _181
REMARK   73  A    between atoms: _181  and  _182
REMARK   74  A    between atoms: _181  and  _184
REMARK   75  A    between atoms: _184  and  _185
REMARK   76  A    between atoms: _187  and  _189
REMARK   77  A    between atoms: _189  and  _190
REMARK   78  A    between atoms: _189  and  _192
REMARK   79  A    between atoms: _192  and  _193
REMARK   80  A    between atoms: _199  and  _201
REMARK   81  A    between atoms: _201  and  _202
REMARK   82  A    between atoms: _201  and  _204
REMARK   83  A    between atoms: _204  and  _205
REMARK   84  A    between atoms: _208  and  _210
REMARK   85  A    between atoms: _210  and  _211
REMARK   86  A    between atoms: _214  and  _216
REMARK   87  A    between atoms: _216  and  _217
REMARK   88  A    between atoms: _216  and  _219
REMARK   89  A    between atoms: _221  and  _223
REMARK   90  A    between atoms: _223  and  _224
REMARK   91  A    between atoms: _223  and  _226
REMARK   92  A    between atoms: _226  and  _227
REMARK   93  A    between atoms: _230  and  _232
REMARK   94  A    between atoms: _232  and  _233
REMARK   95  A    between atoms: _232  and  _235
REMARK   96  A    between atoms: _239  and  _240
REMARK   97  A    between atoms: _245  and  _247
REMARK   98  A    between atoms: _247  and  _248
REMARK   99  A    between atoms: _247  and  _250
REMARK  100  A    between atoms: _253  and  _255
REMARK  101  A    between atoms: _255  and  _256
REMARK  102  A    between atoms: _255  and  _258
REMARK  103  A    between atoms: _258  and  _259
REMARK  104  A    between atoms: _262  and  _264
REMARK  105  A    between atoms: _264  and  _265
REMARK  106  A    between atoms: _264  and  _267
REMARK  107  A    between atoms: _267  and  _268
REMARK  108  A    between atoms: _268  and  _269
REMARK  109  A    between atoms: _271  and  _273
REMARK  110  A    between atoms: _273  and  _274
REMARK  111  A    between atoms: _273  and  _276
REMARK  112  A    between atoms: _276  and  _277
REMARK  113  A    between atoms: _277  and  _278
REMARK  114  A    between atoms: _278  and  _279
REMARK  115  A    between atoms: _279  and  _280
REMARK  116  A    between atoms: _284  and  _286
REMARK  117  A    between atoms: _286  and  _287
REMARK  118  A    between atoms: _286  and  _289
REMARK  119  A    between atoms: _289  and  _290
REMARK  120  A    between atoms: _293  and  _295
REMARK  121  A    between atoms: _295  and  _296
REMARK  122  A    between atoms: _295  and  _298
REMARK  123  A    between atoms: _298  and  _299
REMARK  124  A    between atoms: _301  and  _303
REMARK  125  A    between atoms: _303  and  _304
REMARK  126  A    between atoms: _303  and  _306
REMARK  127  A    between atoms: _306  and  _307
REMARK  128  A    between atoms: _307  and  _308
REMARK  129  A    between atoms: _308  and  _309
REMARK  130  A    between atoms: _318  and  _320
REMARK  131  A    between atoms: _320  and  _321
REMARK  132  A    between atoms: _320  and  _323
REMARK  133  A    between atoms: _323  and  _324
REMARK  134  A    between atoms: _329  and  _331
REMARK  135  A    between atoms: _331  and  _332
REMARK  136  A    between atoms: _331  and  _334
REMARK  137  A    between atoms: _334  and  _335
REMARK  138  A    between atoms: _337  and  _339
REMARK  139  A    between atoms: _339  and  _340
REMARK  140  A    between atoms: _339  and  _342
REMARK  141  A    between atoms: _345  and  _347
REMARK  142  A    between atoms: _347  and  _348
REMARK  143  A    between atoms: _351  and  _353
REMARK  144  A    between atoms: _353  and  _354
REMARK  145  A    between atoms: _353  and  _356
REMARK  146  A    between atoms: _356  and  _357
REMARK  147  A    between atoms: _362  and  _364
REMARK  148  A    between atoms: _364  and  _365
REMARK  149  A    between atoms: _364  and  _367
REMARK  150  A    between atoms: _369  and  _371
REMARK  151  A    between atoms: _371  and  _372
REMARK  152  A    between atoms: _371  and  _374
REMARK  153  A    between atoms: _374  and  _375
REMARK  154  A    between atoms: _377  and  _379
REMARK  155  A    between atoms: _379  and  _380
REMARK  156  A    between atoms: _379  and  _382
REMARK  157  A    between atoms: _382  and  _383
REMARK  158  A    between atoms: _383  and  _384
REMARK  159  A    between atoms: _386  and  _388
REMARK  160  A    between atoms: _388  and  _389
REMARK  161  A    between atoms: _388  and  _391
REMARK  162  A    between atoms: _391  and  _392
REMARK  163  A    between atoms: _392  and  _393
REMARK  164  A    between atoms: _396  and  _398
REMARK  165  A    between atoms: _398  and  _399
REMARK  166  A    between atoms: _398  and  _401
REMARK  167  A    between atoms: _404  and  _406
REMARK  168  A    between atoms: _406  and  _407
REMARK  169  A    between atoms: _409  and  _411
REMARK  170  A    between atoms: _411  and  _412
REMARK  171  A    between atoms: _414  and  _416
REMARK  172  A    between atoms: _416  and  _417
REMARK  173  A    between atoms: _416  and  _419
REMARK  174  A    between atoms: _419  and  _420
REMARK  175  A    between atoms: _425  and  _426
REMARK  176  A    between atoms: _428  and  _430
REMARK  177  A    between atoms: _430  and  _431
REMARK  178  A    between atoms: _430  and  _433
REMARK  179  A    between atoms: _433  and  _434
REMARK  180  A    between atoms: _437  and  _439
REMARK  181  A    between atoms: _439  and  _440
REMARK  182  A    between atoms: _443  and  _445
REMARK  183  A    between atoms: _445  and  _446
REMARK  184  A    between atoms: _445  and  _448
REMARK  185  A    between atoms: _448  and  _449
REMARK  186  A    between atoms: _452  and  _454
REMARK  187  A    between atoms: _454  and  _455
REMARK  188  A    between atoms: _454  and  _457
REMARK  189  A    between atoms: _457  and  _458
REMARK  190  A    between atoms: _461  and  _463
REMARK  191  A    between atoms: _463  and  _464
REMARK  192  A    between atoms: _463  and  _466
REMARK  193  A    between atoms: _466  and  _467
REMARK  194  A    between atoms: _470  and  _472
REMARK  195  A    between atoms: _472  and  _473
REMARK  196  A    between atoms: _472  and  _475
REMARK  197  A    between atoms: _478  and  _480
REMARK  198  A    between atoms: _480  and  _481
REMARK                            x       y       z     vdW  Elec       q    Type
REMARK                         _______ _______ _______ _____ _____    ______ ____
ROOT
ATOM      1  O   HOH     1     -18.446  41.873  -1.613  0.00  0.00    +0.000 OA
ENDROOT
TORSDOF 0
REMARK  Name = ../refined-set-2016/2qbu/2qbu_pocket.pdb
REMARK  198 active torsions:
REMARK  status: ('A' for Active; 'I' for Inactive)
REMARK    1  A    between atoms: _1  and  _3
REMARK    2  A    between atoms: _3  and  _4
REMARK    3  A    between atoms: _6  and  _8
REMARK    4  A    between atoms: _8  and  _9
REMARK    5  A    between atoms: _8  and  _11
REMARK    6  A    between atoms: _14  and  _16
REMARK    7  A    between atoms: _16  and  _17
REMARK    8  A    between atoms: _20  and  _21
REMARK    9  A    between atoms: _26  and  _28
REMARK   10  A    between atoms: _28  and  _29
REMARK   11  A    between atoms: _31  and  _33
REMARK   12  A    between atoms: _33  and  _34
REMARK   13  A    between atoms: _33  and  _36
REMARK   14  A    between atoms: _36  and  _37
REMARK   15  A    between atoms: _40  and  _42
REMARK   16  A    between atoms: _42  and  _43
REMARK   17  A    between atoms: _42  and  _45
REMARK   18  A    between atoms: _45  and  _46
REMARK   19  A    between atoms: _49  and  _51
REMARK   20  A    between atoms: _51  and  _52
REMARK   21  A    between atoms: _51  and  _54
REMARK   22  A    between atoms: _54  and  _55
REMARK   23  A    between atoms: _58  and  _60
REMARK   24  A    between atoms: _60  and  _61
REMARK   25  A    between atoms: _60  and  _63
REMARK   26  A    between atoms: _63  and  _64
REMARK   27  A    between atoms: _67  and  _69
REMARK   28  A    between atoms: _69  and  _70
REMARK   29  A    between atoms: _69  and  _72
REMARK   30  A    between atoms: _72  and  _73
REMARK   31  A    between atoms: _76  and  _78
REMARK   32  A    between atoms: _78  and  _79
REMARK   33  A    between atoms: _81  and  _83
REMARK   34  A    between atoms: _83  and  _84
REMARK   35  A    between atoms: _83  and  _86
REMARK   36  A    between atoms: _86  and  _87
REMARK   37  A    between atoms: _91  and  _92
REMARK   38  A    between atoms: _97  and  _99
REMARK   39  A    between atoms: _99  and  _100
REMARK   40  A    between atoms: _99  and  _102
REMARK   41  A    between atoms: _102  and  _103
REMARK   42  A    between atoms: _105  and  _107
REMARK   43  A    between atoms: _107  and  _108
REMARK   44  A    between atoms: _107  and  _110
REMARK   45  A    between atoms: _110  and  _111
REMARK   46  A    between atoms: _114  and  _116
REMARK   47  A    between atoms: _116  and  _117
REMARK   48  A    between atoms: _116  and  _119
REMARK   49  A    between atoms: _119  and  _120
REMARK   50  A    between atoms: _125  and  _126
REMARK   51  A    between atoms: _128  and  _130
REMARK   52  A    between atoms: _130  and  _131
REMARK   53  A    between atoms: _130  and  _133
REMARK   54  A    between atoms: _133  and  _134
REMARK   55  A    between atoms: _136  and  _138
REMARK   56  A    between atoms: _138  and  _139
REMARK   57  A    between atoms: _138  and  _141
REMARK   58  A    between atoms: _141  and  _142
REMARK   59  A    between atoms: _145  and  _147
REMARK   60  A    between atoms: _147  and  _148
REMARK   61  A    between atoms: _147  and  _150
REMARK   62  A    between atoms: _150  and  _151
REMARK   63  A    between atoms: _157  and  _159
REMARK   64  A    between atoms: _159  and  _160
REMARK   65  A    between atoms: _162  and  _164
REMARK   66  A    between atoms: _164  and  _165
REMARK   67  A    between atoms: _164  and  _167
REMARK   68  A    between atoms: _170  and  _172
REMARK   69  A    between atoms: _172  and  _173
REMARK   70  A    between atoms: _172  and  _175
REMARK   71  A    between atoms: _175  and  _176
REMARK   72  A    between atoms: _179  and  _181
REMARK   73  A    between atoms: _181  and  _182
REMARK   74  A    between atoms: _181  and  _184
REMARK   75  A    between atoms: _184  and  _185
REMARK   76  A    between atoms: _187  and  _189
REMARK   77  A    between atoms: _189  and  _190
REMARK   78  A    between atoms: _189  and  _192
REMARK   79  A    between atoms: _192  and  _193
REMARK   80  A    between atoms: _199  and  _201
REMARK   81  A    between atoms: _201  and  _202
REMARK   82  A    between atoms: _201  and  _204
REMARK   83  A    between atoms: _204  and  _205
REMARK   84  A    between atoms: _208  and  _210
REMARK   85  A    between atoms: _210  and  _211
REMARK   86  A    between atoms: _214  and  _216
REMARK   87  A    between atoms: _216  and  _217
REMARK   88  A    between atoms: _216  and  _219
REMARK   89  A    between atoms: _221  and  _223
REMARK   90  A    between atoms: _223  and  _224
REMARK   91  A    between atoms: _223  and  _226
REMARK   92  A    between atoms: _226  and  _227
REMARK   93  A    between atoms: _230  and  _232
REMARK   94  A    between atoms: _232  and  _233
REMARK   95  A    between atoms: _232  and  _235
REMARK   96  A    between atoms: _239  and  _240
REMARK   97  A    between atoms: _245  and  _247
REMARK   98  A    between atoms: _247  and  _248
REMARK   99  A    between atoms: _247  and  _250
REMARK  100  A    between atoms: _253  and  _255
REMARK  101  A    between atoms: _255  and  _256
REMARK  102  A    between atoms: _255  and  _258
REMARK  103  A    between atoms: _258  and  _259
REMARK  104  A    between atoms: _262  and  _264
REMARK  105  A    between atoms: _264  and  _265
REMARK  106  A    between atoms: _264  and  _267
REMARK  107  A    between atoms: _267  and  _268
REMARK  108  A    between atoms: _268  and  _269
REMARK  109  A    between atoms: _271  and  _273
REMARK  110  A    between atoms: _273  and  _274
REMARK  111  A    between atoms: _273  and  _276
REMARK  112  A    between atoms: _276  and  _277
REMARK  113  A    between atoms: _277  and  _278
REMARK  114  A    between atoms: _278  and  _279
REMARK  115  A    between atoms: _279  and  _280
REMARK  116  A    between atoms: _284  and  _286
REMARK  117  A    between atoms: _286  and  _287
REMARK  118  A    between atoms: _286  and  _289
REMARK  119  A    between atoms: _289  and  _290
REMARK  120  A    between atoms: _293  and  _295
REMARK  121  A    between atoms: _295  and  _296
REMARK  122  A    between atoms: _295  and  _298
REMARK  123  A    between atoms: _298  and  _299
REMARK  124  A    between atoms: _301  and  _303
REMARK  125  A    between atoms: _303  and  _304
REMARK  126  A    between atoms: _303  and  _306
REMARK  127  A    between atoms: _306  and  _307
REMARK  128  A    between atoms: _307  and  _308
REMARK  129  A    between atoms: _308  and  _309
REMARK  130  A    between atoms: _318  and  _320
REMARK  131  A    between atoms: _320  and  _321
REMARK  132  A    between atoms: _320  and  _323
REMARK  133  A    between atoms: _323  and  _324
REMARK  134  A    between atoms: _329  and  _331
REMARK  135  A    between atoms: _331  and  _332
REMARK  136  A    between atoms: _331  and  _334
REMARK  137  A    between atoms: _334  and  _335
REMARK  138  A    between atoms: _337  and  _339
REMARK  139  A    between atoms: _339  and  _340
REMARK  140  A    between atoms: _339  and  _342
REMARK  141  A    between atoms: _345  and  _347
REMARK  142  A    between atoms: _347  and  _348
REMARK  143  A    between atoms: _351  and  _353
REMARK  144  A    between atoms: _353  and  _354
REMARK  145  A    between atoms: _353  and  _356
REMARK  146  A    between atoms: _356  and  _357
REMARK  147  A    between atoms: _362  and  _364
REMARK  148  A    between atoms: _364  and  _365
REMARK  149  A    between atoms: _364  and  _367
REMARK  150  A    between atoms: _369  and  _371
REMARK  151  A    between atoms: _371  and  _372
REMARK  152  A    between atoms: _371  and  _374
REMARK  153  A    between atoms: _374  and  _375
REMARK  154  A    between atoms: _377  and  _379
REMARK  155  A    between atoms: _379  and  _380
REMARK  156  A    between atoms: _379  and  _382
REMARK  157  A    between atoms: _382  and  _383
REMARK  158  A    between atoms: _383  and  _384
REMARK  159  A    between atoms: _386  and  _388
REMARK  160  A    between atoms: _388  and  _389
REMARK  161  A    between atoms: _388  and  _391
REMARK  162  A    between atoms: _391  and  _392
REMARK  163  A    between atoms: _392  and  _393
REMARK  164  A    between atoms: _396  and  _398
REMARK  165  A    between atoms: _398  and  _399
REMARK  166  A    between atoms: _398  and  _401
REMARK  167  A    between atoms: _404  and  _406
REMARK  168  A    between atoms: _406  and  _407
REMARK  169  A    between atoms: _409  and  _411
REMARK  170  A    between atoms: _411  and  _412
REMARK  171  A    between atoms: _414  and  _416
REMARK  172  A    between atoms: _416  and  _417
REMARK  173  A    between atoms: _416  and  _419
REMARK  174  A    between atoms: _419  and  _420
REMARK  175  A    between atoms: _425  and  _426
REMARK  176  A    between atoms: _428  and  _430
REMARK  177  A    between atoms: _430  and  _431
REMARK  178  A    between atoms: _430  and  _433
REMARK  179  A    between atoms: _433  and  _434
REMARK  180  A    between atoms: _437  and  _439
REMARK  181  A    between atoms: _439  and  _440
REMARK  182  A    between atoms: _443  and  _445
REMARK  183  A    between atoms: _445  and  _446
REMARK  184  A    between atoms: _445  and  _448
REMARK  185  A    between atoms: _448  and  _449
REMARK  186  A    between atoms: _452  and  _454
REMARK  187  A    between atoms: _454  and  _455
REMARK  188  A    between atoms: _454  and  _457
REMARK  189  A    between atoms: _457  and  _458
REMARK  190  A    between atoms: _461  and  _463
REMARK  191  A    between atoms: _463  and  _464
REMARK  192  A    between atoms: _463  and  _466
REMARK  193  A    between atoms: _466  and  _467
REMARK  194  A    between atoms: _470  and  _472
REMARK  195  A    between atoms: _472  and  _473
REMARK  196  A    between atoms: _472  and  _475
REMARK  197  A    between atoms: _478  and  _480
REMARK  198  A    between atoms: _480  and  _481
REMARK                            x       y       z     vdW  Elec       q    Type
REMARK                         _______ _______ _______ _____ _____    ______ ____
ROOT
ATOM      1  O   HOH     1     -21.785  38.168   2.398  0.00  0.00    +0.000 OA
ENDROOT
TORSDOF 0
REMARK  Name = ../refined-set-2016/2qbu/2qbu_pocket.pdb
REMARK  198 active torsions:
REMARK  status: ('A' for Active; 'I' for Inactive)
REMARK    1  A    between atoms: _1  and  _3
REMARK    2  A    between atoms: _3  and  _4
REMARK    3  A    between atoms: _6  and  _8
REMARK    4  A    between atoms: _8  and  _9
REMARK    5  A    between atoms: _8  and  _11
REMARK    6  A    between atoms: _14  and  _16
REMARK    7  A    between atoms: _16  and  _17
REMARK    8  A    between atoms: _20  and  _21
REMARK    9  A    between atoms: _26  and  _28
REMARK   10  A    between atoms: _28  and  _29
REMARK   11  A    between atoms: _31  and  _33
REMARK   12  A    between atoms: _33  and  _34
REMARK   13  A    between atoms: _33  and  _36
REMARK   14  A    between atoms: _36  and  _37
REMARK   15  A    between atoms: _40  and  _42
REMARK   16  A    between atoms: _42  and  _43
REMARK   17  A    between atoms: _42  and  _45
REMARK   18  A    between atoms: _45  and  _46
REMARK   19  A    between atoms: _49  and  _51
REMARK   20  A    between atoms: _51  and  _52
REMARK   21  A    between atoms: _51  and  _54
REMARK   22  A    between atoms: _54  and  _55
REMARK   23  A    between atoms: _58  and  _60
REMARK   24  A    between atoms: _60  and  _61
REMARK   25  A    between atoms: _60  and  _63
REMARK   26  A    between atoms: _63  and  _64
REMARK   27  A    between atoms: _67  and  _69
REMARK   28  A    between atoms: _69  and  _70
REMARK   29  A    between atoms: _69  and  _72
REMARK   30  A    between atoms: _72  and  _73
REMARK   31  A    between atoms: _76  and  _78
REMARK   32  A    between atoms: _78  and  _79
REMARK   33  A    between atoms: _81  and  _83
REMARK   34  A    between atoms: _83  and  _84
REMARK   35  A    between atoms: _83  and  _86
REMARK   36  A    between atoms: _86  and  _87
REMARK   37  A    between atoms: _91  and  _92
REMARK   38  A    between atoms: _97  and  _99
REMARK   39  A    between atoms: _99  and  _100
REMARK   40  A    between atoms: _99  and  _102
REMARK   41  A    between atoms: _102  and  _103
REMARK   42  A    between atoms: _105  and  _107
REMARK   43  A    between atoms: _107  and  _108
REMARK   44  A    between atoms: _107  and  _110
REMARK   45  A    between atoms: _110  and  _111
REMARK   46  A    between atoms: _114  and  _116
REMARK   47  A    between atoms: _116  and  _117
REMARK   48  A    between atoms: _116  and  _119
REMARK   49  A    between atoms: _119  and  _120
REMARK   50  A    between atoms: _125  and  _126
REMARK   51  A    between atoms: _128  and  _130
REMARK   52  A    between atoms: _130  and  _131
REMARK   53  A    between atoms: _130  and  _133
REMARK   54  A    between atoms: _133  and  _134
REMARK   55  A    between atoms: _136  and  _138
REMARK   56  A    between atoms: _138  and  _139
REMARK   57  A    between atoms: _138  and  _141
REMARK   58  A    between atoms: _141  and  _142
REMARK   59  A    between atoms: _145  and  _147
REMARK   60  A    between atoms: _147  and  _148
REMARK   61  A    between atoms: _147  and  _150
REMARK   62  A    between atoms: _150  and  _151
REMARK   63  A    between atoms: _157  and  _159
REMARK   64  A    between atoms: _159  and  _160
REMARK   65  A    between atoms: _162  and  _164
REMARK   66  A    between atoms: _164  and  _165
REMARK   67  A    between atoms: _164  and  _167
REMARK   68  A    between atoms: _170  and  _172
REMARK   69  A    between atoms: _172  and  _173
REMARK   70  A    between atoms: _172  and  _175
REMARK   71  A    between atoms: _175  and  _176
REMARK   72  A    between atoms: _179  and  _181
REMARK   73  A    between atoms: _181  and  _182
REMARK   74  A    between atoms: _181  and  _184
REMARK   75  A    between atoms: _184  and  _185
REMARK   76  A    between atoms: _187  and  _189
REMARK   77  A    between atoms: _189  and  _190
REMARK   78  A    between atoms: _189  and  _192
REMARK   79  A    between atoms: _192  and  _193
REMARK   80  A    between atoms: _199  and  _201
REMARK   81  A    between atoms: _201  and  _202
REMARK   82  A    between atoms: _201  and  _204
REMARK   83  A    between atoms: _204  and  _205
REMARK   84  A    between atoms: _208  and  _210
REMARK   85  A    between atoms: _210  and  _211
REMARK   86  A    between atoms: _214  and  _216
REMARK   87  A    between atoms: _216  and  _217
REMARK   88  A    between atoms: _216  and  _219
REMARK   89  A    between atoms: _221  and  _223
REMARK   90  A    between atoms: _223  and  _224
REMARK   91  A    between atoms: _223  and  _226
REMARK   92  A    between atoms: _226  and  _227
REMARK   93  A    between atoms: _230  and  _232
REMARK   94  A    between atoms: _232  and  _233
REMARK   95  A    between atoms: _232  and  _235
REMARK   96  A    between atoms: _239  and  _240
REMARK   97  A    between atoms: _245  and  _247
REMARK   98  A    between atoms: _247  and  _248
REMARK   99  A    between atoms: _247  and  _250
REMARK  100  A    between atoms: _253  and  _255
REMARK  101  A    between atoms: _255  and  _256
REMARK  102  A    between atoms: _255  and  _258
REMARK  103  A    between atoms: _258  and  _259
REMARK  104  A    between atoms: _262  and  _264
REMARK  105  A    between atoms: _264  and  _265
REMARK  106  A    between atoms: _264  and  _267
REMARK  107  A    between atoms: _267  and  _268
REMARK  108  A    between atoms: _268  and  _269
REMARK  109  A    between atoms: _271  and  _273
REMARK  110  A    between atoms: _273  and  _274
REMARK  111  A    between atoms: _273  and  _276
REMARK  112  A    between atoms: _276  and  _277
REMARK  113  A    between atoms: _277  and  _278
REMARK  114  A    between atoms: _278  and  _279
REMARK  115  A    between atoms: _279  and  _280
REMARK  116  A    between atoms: _284  and  _286
REMARK  117  A    between atoms: _286  and  _287
REMARK  118  A    between atoms: _286  and  _289
REMARK  119  A    between atoms: _289  and  _290
REMARK  120  A    between atoms: _293  and  _295
REMARK  121  A    between atoms: _295  and  _296
REMARK  122  A    between atoms: _295  and  _298
REMARK  123  A    between atoms: _298  and  _299
REMARK  124  A    between atoms: _301  and  _303
REMARK  125  A    between atoms: _303  and  _304
REMARK  126  A    between atoms: _303  and  _306
REMARK  127  A    between atoms: _306  and  _307
REMARK  128  A    between atoms: _307  and  _308
REMARK  129  A    between atoms: _308  and  _309
REMARK  130  A    between atoms: _318  and  _320
REMARK  131  A    between atoms: _320  and  _321
REMARK  132  A    between atoms: _320  and  _323
REMARK  133  A    between atoms: _323  and  _324
REMARK  134  A    between atoms: _329  and  _331
REMARK  135  A    between atoms: _331  and  _332
REMARK  136  A    between atoms: _331  and  _334
REMARK  137  A    between atoms: _334  and  _335
REMARK  138  A    between atoms: _337  and  _339
REMARK  139  A    between atoms: _339  and  _340
REMARK  140  A    between atoms: _339  and  _342
REMARK  141  A    between atoms: _345  and  _347
REMARK  142  A    between atoms: _347  and  _348
REMARK  143  A    between atoms: _351  and  _353
REMARK  144  A    between atoms: _353  and  _354
REMARK  145  A    between atoms: _353  and  _356
REMARK  146  A    between atoms: _356  and  _357
REMARK  147  A    between atoms: _362  and  _364
REMARK  148  A    between atoms: _364  and  _365
REMARK  149  A    between atoms: _364  and  _367
REMARK  150  A    between atoms: _369  and  _371
REMARK  151  A    between atoms: _371  and  _372
REMARK  152  A    between atoms: _371  and  _374
REMARK  153  A    between atoms: _374  and  _375
REMARK  154  A    between atoms: _377  and  _379
REMARK  155  A    between atoms: _379  and  _380
REMARK  156  A    between atoms: _379  and  _382
REMARK  157  A    between atoms: _382  and  _383
REMARK  158  A    between atoms: _383  and  _384
REMARK  159  A    between atoms: _386  and  _388
REMARK  160  A    between atoms: _388  and  _389
REMARK  161  A    between atoms: _388  and  _391
REMARK  162  A    between atoms: _391  and  _392
REMARK  163  A    between atoms: _392  and  _393
REMARK  164  A    between atoms: _396  and  _398
REMARK  165  A    between atoms: _398  and  _399
REMARK  166  A    between atoms: _398  and  _401
REMARK  167  A    between atoms: _404  and  _406
REMARK  168  A    between atoms: _406  and  _407
REMARK  169  A    between atoms: _409  and  _411
REMARK  170  A    between atoms: _411  and  _412
REMARK  171  A    between atoms: _414  and  _416
REMARK  172  A    between atoms: _416  and  _417
REMARK  173  A    between atoms: _416  and  _419
REMARK  174  A    between atoms: _419  and  _420
REMARK  175  A    between atoms: _425  and  _426
REMARK  176  A    between atoms: _428  and  _430
REMARK  177  A    between atoms: _430  and  _431
REMARK  178  A    between atoms: _430  and  _433
REMARK  179  A    between atoms: _433  and  _434
REMARK  180  A    between atoms: _437  and  _439
REMARK  181  A    between atoms: _439  and  _440
REMARK  182  A    between atoms: _443  and  _445
REMARK  183  A    between atoms: _445  and  _446
REMARK  184  A    between atoms: _445  and  _448
REMARK  185  A    between atoms: _448  and  _449
REMARK  186  A    between atoms: _452  and  _454
REMARK  187  A    between atoms: _454  and  _455
REMARK  188  A    between atoms: _454  and  _457
REMARK  189  A    between atoms: _457  and  _458
REMARK  190  A    between atoms: _461  and  _463
REMARK  191  A    between atoms: _463  and  _464
REMARK  192  A    between atoms: _463  and  _466
REMARK  193  A    between atoms: _466  and  _467
REMARK  194  A    between atoms: _470  and  _472
REMARK  195  A    between atoms: _472  and  _473
REMARK  196  A    between atoms: _472  and  _475
REMARK  197  A    between atoms: _478  and  _480
REMARK  198  A    between atoms: _480  and  _481
REMARK                            x       y       z     vdW  Elec       q    Type
REMARK                         _______ _______ _______ _____ _____    ______ ____
ROOT
ATOM      1  O   HOH     1     -33.905  37.326   0.337  0.00  0.00    +0.000 OA
ENDROOT
TORSDOF 0
REMARK  Name = ../refined-set-2016/2qbu/2qbu_pocket.pdb
REMARK  198 active torsions:
REMARK  status: ('A' for Active; 'I' for Inactive)
REMARK    1  A    between atoms: _1  and  _3
REMARK    2  A    between atoms: _3  and  _4
REMARK    3  A    between atoms: _6  and  _8
REMARK    4  A    between atoms: _8  and  _9
REMARK    5  A    between atoms: _8  and  _11
REMARK    6  A    between atoms: _14  and  _16
REMARK    7  A    between atoms: _16  and  _17
REMARK    8  A    between atoms: _20  and  _21
REMARK    9  A    between atoms: _26  and  _28
REMARK   10  A    between atoms: _28  and  _29
REMARK   11  A    between atoms: _31  and  _33
REMARK   12  A    between atoms: _33  and  _34
REMARK   13  A    between atoms: _33  and  _36
REMARK   14  A    between atoms: _36  and  _37
REMARK   15  A    between atoms: _40  and  _42
REMARK   16  A    between atoms: _42  and  _43
REMARK   17  A    between atoms: _42  and  _45
REMARK   18  A    between atoms: _45  and  _46
REMARK   19  A    between atoms: _49  and  _51
REMARK   20  A    between atoms: _51  and  _52
REMARK   21  A    between atoms: _51  and  _54
REMARK   22  A    between atoms: _54  and  _55
REMARK   23  A    between atoms: _58  and  _60
REMARK   24  A    between atoms: _60  and  _61
REMARK   25  A    between atoms: _60  and  _63
REMARK   26  A    between atoms: _63  and  _64
REMARK   27  A    between atoms: _67  and  _69
REMARK   28  A    between atoms: _69  and  _70
REMARK   29  A    between atoms: _69  and  _72
REMARK   30  A    between atoms: _72  and  _73
REMARK   31  A    between atoms: _76  and  _78
REMARK   32  A    between atoms: _78  and  _79
REMARK   33  A    between atoms: _81  and  _83
REMARK   34  A    between atoms: _83  and  _84
REMARK   35  A    between atoms: _83  and  _86
REMARK   36  A    between atoms: _86  and  _87
REMARK   37  A    between atoms: _91  and  _92
REMARK   38  A    between atoms: _97  and  _99
REMARK   39  A    between atoms: _99  and  _100
REMARK   40  A    between atoms: _99  and  _102
REMARK   41  A    between atoms: _102  and  _103
REMARK   42  A    between atoms: _105  and  _107
REMARK   43  A    between atoms: _107  and  _108
REMARK   44  A    between atoms: _107  and  _110
REMARK   45  A    between atoms: _110  and  _111
REMARK   46  A    between atoms: _114  and  _116
REMARK   47  A    between atoms: _116  and  _117
REMARK   48  A    between atoms: _116  and  _119
REMARK   49  A    between atoms: _119  and  _120
REMARK   50  A    between atoms: _125  and  _126
REMARK   51  A    between atoms: _128  and  _130
REMARK   52  A    between atoms: _130  and  _131
REMARK   53  A    between atoms: _130  and  _133
REMARK   54  A    between atoms: _133  and  _134
REMARK   55  A    between atoms: _136  and  _138
REMARK   56  A    between atoms: _138  and  _139
REMARK   57  A    between atoms: _138  and  _141
REMARK   58  A    between atoms: _141  and  _142
REMARK   59  A    between atoms: _145  and  _147
REMARK   60  A    between atoms: _147  and  _148
REMARK   61  A    between atoms: _147  and  _150
REMARK   62  A    between atoms: _150  and  _151
REMARK   63  A    between atoms: _157  and  _159
REMARK   64  A    between atoms: _159  and  _160
REMARK   65  A    between atoms: _162  and  _164
REMARK   66  A    between atoms: _164  and  _165
REMARK   67  A    between atoms: _164  and  _167
REMARK   68  A    between atoms: _170  and  _172
REMARK   69  A    between atoms: _172  and  _173
REMARK   70  A    between atoms: _172  and  _175
REMARK   71  A    between atoms: _175  and  _176
REMARK   72  A    between atoms: _179  and  _181
REMARK   73  A    between atoms: _181  and  _182
REMARK   74  A    between atoms: _181  and  _184
REMARK   75  A    between atoms: _184  and  _185
REMARK   76  A    between atoms: _187  and  _189
REMARK   77  A    between atoms: _189  and  _190
REMARK   78  A    between atoms: _189  and  _192
REMARK   79  A    between atoms: _192  and  _193
REMARK   80  A    between atoms: _199  and  _201
REMARK   81  A    between atoms: _201  and  _202
REMARK   82  A    between atoms: _201  and  _204
REMARK   83  A    between atoms: _204  and  _205
REMARK   84  A    between atoms: _208  and  _210
REMARK   85  A    between atoms: _210  and  _211
REMARK   86  A    between atoms: _214  and  _216
REMARK   87  A    between atoms: _216  and  _217
REMARK   88  A    between atoms: _216  and  _219
REMARK   89  A    between atoms: _221  and  _223
REMARK   90  A    between atoms: _223  and  _224
REMARK   91  A    between atoms: _223  and  _226
REMARK   92  A    between atoms: _226  and  _227
REMARK   93  A    between atoms: _230  and  _232
REMARK   94  A    between atoms: _232  and  _233
REMARK   95  A    between atoms: _232  and  _235
REMARK   96  A    between atoms: _239  and  _240
REMARK   97  A    between atoms: _245  and  _247
REMARK   98  A    between atoms: _247  and  _248
REMARK   99  A    between atoms: _247  and  _250
REMARK  100  A    between atoms: _253  and  _255
REMARK  101  A    between atoms: _255  and  _256
REMARK  102  A    between atoms: _255  and  _258
REMARK  103  A    between atoms: _258  and  _259
REMARK  104  A    between atoms: _262  and  _264
REMARK  105  A    between atoms: _264  and  _265
REMARK  106  A    between atoms: _264  and  _267
REMARK  107  A    between atoms: _267  and  _268
REMARK  108  A    between atoms: _268  and  _269
REMARK  109  A    between atoms: _271  and  _273
REMARK  110  A    between atoms: _273  and  _274
REMARK  111  A    between atoms: _273  and  _276
REMARK  112  A    between atoms: _276  and  _277
REMARK  113  A    between atoms: _277  and  _278
REMARK  114  A    between atoms: _278  and  _279
REMARK  115  A    between atoms: _279  and  _280
REMARK  116  A    between atoms: _284  and  _286
REMARK  117  A    between atoms: _286  and  _287
REMARK  118  A    between atoms: _286  and  _289
REMARK  119  A    between atoms: _289  and  _290
REMARK  120  A    between atoms: _293  and  _295
REMARK  121  A    between atoms: _295  and  _296
REMARK  122  A    between atoms: _295  and  _298
REMARK  123  A    between atoms: _298  and  _299
REMARK  124  A    between atoms: _301  and  _303
REMARK  125  A    between atoms: _303  and  _304
REMARK  126  A    between atoms: _303  and  _306
REMARK  127  A    between atoms: _306  and  _307
REMARK  128  A    between atoms: _307  and  _308
REMARK  129  A    between atoms: _308  and  _309
REMARK  130  A    between atoms: _318  and  _320
REMARK  131  A    between atoms: _320  and  _321
REMARK  132  A    between atoms: _320  and  _323
REMARK  133  A    between atoms: _323  and  _324
REMARK  134  A    between atoms: _329  and  _331
REMARK  135  A    between atoms: _331  and  _332
REMARK  136  A    between atoms: _331  and  _334
REMARK  137  A    between atoms: _334  and  _335
REMARK  138  A    between atoms: _337  and  _339
REMARK  139  A    between atoms: _339  and  _340
REMARK  140  A    between atoms: _339  and  _342
REMARK  141  A    between atoms: _345  and  _347
REMARK  142  A    between atoms: _347  and  _348
REMARK  143  A    between atoms: _351  and  _353
REMARK  144  A    between atoms: _353  and  _354
REMARK  145  A    between atoms: _353  and  _356
REMARK  146  A    between atoms: _356  and  _357
REMARK  147  A    between atoms: _362  and  _364
REMARK  148  A    between atoms: _364  and  _365
REMARK  149  A    between atoms: _364  and  _367
REMARK  150  A    between atoms: _369  and  _371
REMARK  151  A    between atoms: _371  and  _372
REMARK  152  A    between atoms: _371  and  _374
REMARK  153  A    between atoms: _374  and  _375
REMARK  154  A    between atoms: _377  and  _379
REMARK  155  A    between atoms: _379  and  _380
REMARK  156  A    between atoms: _379  and  _382
REMARK  157  A    between atoms: _382  and  _383
REMARK  158  A    between atoms: _383  and  _384
REMARK  159  A    between atoms: _386  and  _388
REMARK  160  A    between atoms: _388  and  _389
REMARK  161  A    between atoms: _388  and  _391
REMARK  162  A    between atoms: _391  and  _392
REMARK  163  A    between atoms: _392  and  _393
REMARK  164  A    between atoms: _396  and  _398
REMARK  165  A    between atoms: _398  and  _399
REMARK  166  A    between atoms: _398  and  _401
REMARK  167  A    between atoms: _404  and  _406
REMARK  168  A    between atoms: _406  and  _407
REMARK  169  A    between atoms: _409  and  _411
REMARK  170  A    between atoms: _411  and  _412
REMARK  171  A    between atoms: _414  and  _416
REMARK  172  A    between atoms: _416  and  _417
REMARK  173  A    between atoms: _416  and  _419
REMARK  174  A    between atoms: _419  and  _420
REMARK  175  A    between atoms: _425  and  _426
REMARK  176  A    between atoms: _428  and  _430
REMARK  177  A    between atoms: _430  and  _431
REMARK  178  A    between atoms: _430  and  _433
REMARK  179  A    between atoms: _433  and  _434
REMARK  180  A    between atoms: _437  and  _439
REMARK  181  A    between atoms: _439  and  _440
REMARK  182  A    between atoms: _443  and  _445
REMARK  183  A    between atoms: _445  and  _446
REMARK  184  A    between atoms: _445  and  _448
REMARK  185  A    between atoms: _448  and  _449
REMARK  186  A    between atoms: _452  and  _454
REMARK  187  A    between atoms: _454  and  _455
REMARK  188  A    between atoms: _454  and  _457
REMARK  189  A    between atoms: _457  and  _458
REMARK  190  A    between atoms: _461  and  _463
REMARK  191  A    between atoms: _463  and  _464
REMARK  192  A    between atoms: _463  and  _466
REMARK  193  A    between atoms: _466  and  _467
REMARK  194  A    between atoms: _470  and  _472
REMARK  195  A    between atoms: _472  and  _473
REMARK  196  A    between atoms: _472  and  _475
REMARK  197  A    between atoms: _478  and  _480
REMARK  198  A    between atoms: _480  and  _481
REMARK                            x       y       z     vdW  Elec       q    Type
REMARK                         _______ _______ _______ _____ _____    ______ ____
ROOT
ATOM      1  O   HOH     1     -22.338  31.854   5.201  0.00  0.00    +0.000 OA
ENDROOT
TORSDOF 0
REMARK  Name = ../refined-set-2016/2qbu/2qbu_pocket.pdb
REMARK  198 active torsions:
REMARK  status: ('A' for Active; 'I' for Inactive)
REMARK    1  A    between atoms: _1  and  _3
REMARK    2  A    between atoms: _3  and  _4
REMARK    3  A    between atoms: _6  and  _8
REMARK    4  A    between atoms: _8  and  _9
REMARK    5  A    between atoms: _8  and  _11
REMARK    6  A    between atoms: _14  and  _16
REMARK    7  A    between atoms: _16  and  _17
REMARK    8  A    between atoms: _20  and  _21
REMARK    9  A    between atoms: _26  and  _28
REMARK   10  A    between atoms: _28  and  _29
REMARK   11  A    between atoms: _31  and  _33
REMARK   12  A    between atoms: _33  and  _34
REMARK   13  A    between atoms: _33  and  _36
REMARK   14  A    between atoms: _36  and  _37
REMARK   15  A    between atoms: _40  and  _42
REMARK   16  A    between atoms: _42  and  _43
REMARK   17  A    between atoms: _42  and  _45
REMARK   18  A    between atoms: _45  and  _46
REMARK   19  A    between atoms: _49  and  _51
REMARK   20  A    between atoms: _51  and  _52
REMARK   21  A    between atoms: _51  and  _54
REMARK   22  A    between atoms: _54  and  _55
REMARK   23  A    between atoms: _58  and  _60
REMARK   24  A    between atoms: _60  and  _61
REMARK   25  A    between atoms: _60  and  _63
REMARK   26  A    between atoms: _63  and  _64
REMARK   27  A    between atoms: _67  and  _69
REMARK   28  A    between atoms: _69  and  _70
REMARK   29  A    between atoms: _69  and  _72
REMARK   30  A    between atoms: _72  and  _73
REMARK   31  A    between atoms: _76  and  _78
REMARK   32  A    between atoms: _78  and  _79
REMARK   33  A    between atoms: _81  and  _83
REMARK   34  A    between atoms: _83  and  _84
REMARK   35  A    between atoms: _83  and  _86
REMARK   36  A    between atoms: _86  and  _87
REMARK   37  A    between atoms: _91  and  _92
REMARK   38  A    between atoms: _97  and  _99
REMARK   39  A    between atoms: _99  and  _100
REMARK   40  A    between atoms: _99  and  _102
REMARK   41  A    between atoms: _102  and  _103
REMARK   42  A    between atoms: _105  and  _107
REMARK   43  A    between atoms: _107  and  _108
REMARK   44  A    between atoms: _107  and  _110
REMARK   45  A    between atoms: _110  and  _111
REMARK   46  A    between atoms: _114  and  _116
REMARK   47  A    between atoms: _116  and  _117
REMARK   48  A    between atoms: _116  and  _119
REMARK   49  A    between atoms: _119  and  _120
REMARK   50  A    between atoms: _125  and  _126
REMARK   51  A    between atoms: _128  and  _130
REMARK   52  A    between atoms: _130  and  _131
REMARK   53  A    between atoms: _130  and  _133
REMARK   54  A    between atoms: _133  and  _134
REMARK   55  A    between atoms: _136  and  _138
REMARK   56  A    between atoms: _138  and  _139
REMARK   57  A    between atoms: _138  and  _141
REMARK   58  A    between atoms: _141  and  _142
REMARK   59  A    between atoms: _145  and  _147
REMARK   60  A    between atoms: _147  and  _148
REMARK   61  A    between atoms: _147  and  _150
REMARK   62  A    between atoms: _150  and  _151
REMARK   63  A    between atoms: _157  and  _159
REMARK   64  A    between atoms: _159  and  _160
REMARK   65  A    between atoms: _162  and  _164
REMARK   66  A    between atoms: _164  and  _165
REMARK   67  A    between atoms: _164  and  _167
REMARK   68  A    between atoms: _170  and  _172
REMARK   69  A    between atoms: _172  and  _173
REMARK   70  A    between atoms: _172  and  _175
REMARK   71  A    between atoms: _175  and  _176
REMARK   72  A    between atoms: _179  and  _181
REMARK   73  A    between atoms: _181  and  _182
REMARK   74  A    between atoms: _181  and  _184
REMARK   75  A    between atoms: _184  and  _185
REMARK   76  A    between atoms: _187  and  _189
REMARK   77  A    between atoms: _189  and  _190
REMARK   78  A    between atoms: _189  and  _192
REMARK   79  A    between atoms: _192  and  _193
REMARK   80  A    between atoms: _199  and  _201
REMARK   81  A    between atoms: _201  and  _202
REMARK   82  A    between atoms: _201  and  _204
REMARK   83  A    between atoms: _204  and  _205
REMARK   84  A    between atoms: _208  and  _210
REMARK   85  A    between atoms: _210  and  _211
REMARK   86  A    between atoms: _214  and  _216
REMARK   87  A    between atoms: _216  and  _217
REMARK   88  A    between atoms: _216  and  _219
REMARK   89  A    between atoms: _221  and  _223
REMARK   90  A    between atoms: _223  and  _224
REMARK   91  A    between atoms: _223  and  _226
REMARK   92  A    between atoms: _226  and  _227
REMARK   93  A    between atoms: _230  and  _232
REMARK   94  A    between atoms: _232  and  _233
REMARK   95  A    between atoms: _232  and  _235
REMARK   96  A    between atoms: _239  and  _240
REMARK   97  A    between atoms: _245  and  _247
REMARK   98  A    between atoms: _247  and  _248
REMARK   99  A    between atoms: _247  and  _250
REMARK  100  A    between atoms: _253  and  _255
REMARK  101  A    between atoms: _255  and  _256
REMARK  102  A    between atoms: _255  and  _258
REMARK  103  A    between atoms: _258  and  _259
REMARK  104  A    between atoms: _262  and  _264
REMARK  105  A    between atoms: _264  and  _265
REMARK  106  A    between atoms: _264  and  _267
REMARK  107  A    between atoms: _267  and  _268
REMARK  108  A    between atoms: _268  and  _269
REMARK  109  A    between atoms: _271  and  _273
REMARK  110  A    between atoms: _273  and  _274
REMARK  111  A    between atoms: _273  and  _276
REMARK  112  A    between atoms: _276  and  _277
REMARK  113  A    between atoms: _277  and  _278
REMARK  114  A    between atoms: _278  and  _279
REMARK  115  A    between atoms: _279  and  _280
REMARK  116  A    between atoms: _284  and  _286
REMARK  117  A    between atoms: _286  and  _287
REMARK  118  A    between atoms: _286  and  _289
REMARK  119  A    between atoms: _289  and  _290
REMARK  120  A    between atoms: _293  and  _295
REMARK  121  A    between atoms: _295  and  _296
REMARK  122  A    between atoms: _295  and  _298
REMARK  123  A    between atoms: _298  and  _299
REMARK  124  A    between atoms: _301  and  _303
REMARK  125  A    between atoms: _303  and  _304
REMARK  126  A    between atoms: _303  and  _306
REMARK  127  A    between atoms: _306  and  _307
REMARK  128  A    between atoms: _307  and  _308
REMARK  129  A    between atoms: _308  and  _309
REMARK  130  A    between atoms: _318  and  _320
REMARK  131  A    between atoms: _320  and  _321
REMARK  132  A    between atoms: _320  and  _323
REMARK  133  A    between atoms: _323  and  _324
REMARK  134  A    between atoms: _329  and  _331
REMARK  135  A    between atoms: _331  and  _332
REMARK  136  A    between atoms: _331  and  _334
REMARK  137  A    between atoms: _334  and  _335
REMARK  138  A    between atoms: _337  and  _339
REMARK  139  A    between atoms: _339  and  _340
REMARK  140  A    between atoms: _339  and  _342
REMARK  141  A    between atoms: _345  and  _347
REMARK  142  A    between atoms: _347  and  _348
REMARK  143  A    between atoms: _351  and  _353
REMARK  144  A    between atoms: _353  and  _354
REMARK  145  A    between atoms: _353  and  _356
REMARK  146  A    between atoms: _356  and  _357
REMARK  147  A    between atoms: _362  and  _364
REMARK  148  A    between atoms: _364  and  _365
REMARK  149  A    between atoms: _364  and  _367
REMARK  150  A    between atoms: _369  and  _371
REMARK  151  A    between atoms: _371  and  _372
REMARK  152  A    between atoms: _371  and  _374
REMARK  153  A    between atoms: _374  and  _375
REMARK  154  A    between atoms: _377  and  _379
REMARK  155  A    between atoms: _379  and  _380
REMARK  156  A    between atoms: _379  and  _382
REMARK  157  A    between atoms: _382  and  _383
REMARK  158  A    between atoms: _383  and  _384
REMARK  159  A    between atoms: _386  and  _388
REMARK  160  A    between atoms: _388  and  _389
REMARK  161  A    between atoms: _388  and  _391
REMARK  162  A    between atoms: _391  and  _392
REMARK  163  A    between atoms: _392  and  _393
REMARK  164  A    between atoms: _396  and  _398
REMARK  165  A    between atoms: _398  and  _399
REMARK  166  A    between atoms: _398  and  _401
REMARK  167  A    between atoms: _404  and  _406
REMARK  168  A    between atoms: _406  and  _407
REMARK  169  A    between atoms: _409  and  _411
REMARK  170  A    between atoms: _411  and  _412
REMARK  171  A    between atoms: _414  and  _416
REMARK  172  A    between atoms: _416  and  _417
REMARK  173  A    between atoms: _416  and  _419
REMARK  174  A    between atoms: _419  and  _420
REMARK  175  A    between atoms: _425  and  _426
REMARK  176  A    between atoms: _428  and  _430
REMARK  177  A    between atoms: _430  and  _431
REMARK  178  A    between atoms: _430  and  _433
REMARK  179  A    between atoms: _433  and  _434
REMARK  180  A    between atoms: _437  and  _439
REMARK  181  A    between atoms: _439  and  _440
REMARK  182  A    between atoms: _443  and  _445
REMARK  183  A    between atoms: _445  and  _446
REMARK  184  A    between atoms: _445  and  _448
REMARK  185  A    between atoms: _448  and  _449
REMARK  186  A    between atoms: _452  and  _454
REMARK  187  A    between atoms: _454  and  _455
REMARK  188  A    between atoms: _454  and  _457
REMARK  189  A    between atoms: _457  and  _458
REMARK  190  A    between atoms: _461  and  _463
REMARK  191  A    between atoms: _463  and  _464
REMARK  192  A    between atoms: _463  and  _466
REMARK  193  A    between atoms: _466  and  _467
REMARK  194  A    between atoms: _470  and  _472
REMARK  195  A    between atoms: _472  and  _473
REMARK  196  A    between atoms: _472  and  _475
REMARK  197  A    between atoms: _478  and  _480
REMARK  198  A    between atoms: _480  and  _481
REMARK                            x       y       z     vdW  Elec       q    Type
REMARK                         _______ _______ _______ _____ _____    ______ ____
ROOT
ATOM      1  O   HOH     1     -18.060  32.322   1.981  0.00  0.00    +0.000 OA
ENDROOT
TORSDOF 0
REMARK  Name = ../refined-set-2016/2qbu/2qbu_pocket.pdb
REMARK  198 active torsions:
REMARK  status: ('A' for Active; 'I' for Inactive)
REMARK    1  A    between atoms: _1  and  _3
REMARK    2  A    between atoms: _3  and  _4
REMARK    3  A    between atoms: _6  and  _8
REMARK    4  A    between atoms: _8  and  _9
REMARK    5  A    between atoms: _8  and  _11
REMARK    6  A    between atoms: _14  and  _16
REMARK    7  A    between atoms: _16  and  _17
REMARK    8  A    between atoms: _20  and  _21
REMARK    9  A    between atoms: _26  and  _28
REMARK   10  A    between atoms: _28  and  _29
REMARK   11  A    between atoms: _31  and  _33
REMARK   12  A    between atoms: _33  and  _34
REMARK   13  A    between atoms: _33  and  _36
REMARK   14  A    between atoms: _36  and  _37
REMARK   15  A    between atoms: _40  and  _42
REMARK   16  A    between atoms: _42  and  _43
REMARK   17  A    between atoms: _42  and  _45
REMARK   18  A    between atoms: _45  and  _46
REMARK   19  A    between atoms: _49  and  _51
REMARK   20  A    between atoms: _51  and  _52
REMARK   21  A    between atoms: _51  and  _54
REMARK   22  A    between atoms: _54  and  _55
REMARK   23  A    between atoms: _58  and  _60
REMARK   24  A    between atoms: _60  and  _61
REMARK   25  A    between atoms: _60  and  _63
REMARK   26  A    between atoms: _63  and  _64
REMARK   27  A    between atoms: _67  and  _69
REMARK   28  A    between atoms: _69  and  _70
REMARK   29  A    between atoms: _69  and  _72
REMARK   30  A    between atoms: _72  and  _73
REMARK   31  A    between atoms: _76  and  _78
REMARK   32  A    between atoms: _78  and  _79
REMARK   33  A    between atoms: _81  and  _83
REMARK   34  A    between atoms: _83  and  _84
REMARK   35  A    between atoms: _83  and  _86
REMARK   36  A    between atoms: _86  and  _87
REMARK   37  A    between atoms: _91  and  _92
REMARK   38  A    between atoms: _97  and  _99
REMARK   39  A    between atoms: _99  and  _100
REMARK   40  A    between atoms: _99  and  _102
REMARK   41  A    between atoms: _102  and  _103
REMARK   42  A    between atoms: _105  and  _107
REMARK   43  A    between atoms: _107  and  _108
REMARK   44  A    between atoms: _107  and  _110
REMARK   45  A    between atoms: _110  and  _111
REMARK   46  A    between atoms: _114  and  _116
REMARK   47  A    between atoms: _116  and  _117
REMARK   48  A    between atoms: _116  and  _119
REMARK   49  A    between atoms: _119  and  _120
REMARK   50  A    between atoms: _125  and  _126
REMARK   51  A    between atoms: _128  and  _130
REMARK   52  A    between atoms: _130  and  _131
REMARK   53  A    between atoms: _130  and  _133
REMARK   54  A    between atoms: _133  and  _134
REMARK   55  A    between atoms: _136  and  _138
REMARK   56  A    between atoms: _138  and  _139
REMARK   57  A    between atoms: _138  and  _141
REMARK   58  A    between atoms: _141  and  _142
REMARK   59  A    between atoms: _145  and  _147
REMARK   60  A    between atoms: _147  and  _148
REMARK   61  A    between atoms: _147  and  _150
REMARK   62  A    between atoms: _150  and  _151
REMARK   63  A    between atoms: _157  and  _159
REMARK   64  A    between atoms: _159  and  _160
REMARK   65  A    between atoms: _162  and  _164
REMARK   66  A    between atoms: _164  and  _165
REMARK   67  A    between atoms: _164  and  _167
REMARK   68  A    between atoms: _170  and  _172
REMARK   69  A    between atoms: _172  and  _173
REMARK   70  A    between atoms: _172  and  _175
REMARK   71  A    between atoms: _175  and  _176
REMARK   72  A    between atoms: _179  and  _181
REMARK   73  A    between atoms: _181  and  _182
REMARK   74  A    between atoms: _181  and  _184
REMARK   75  A    between atoms: _184  and  _185
REMARK   76  A    between atoms: _187  and  _189
REMARK   77  A    between atoms: _189  and  _190
REMARK   78  A    between atoms: _189  and  _192
REMARK   79  A    between atoms: _192  and  _193
REMARK   80  A    between atoms: _199  and  _201
REMARK   81  A    between atoms: _201  and  _202
REMARK   82  A    between atoms: _201  and  _204
REMARK   83  A    between atoms: _204  and  _205
REMARK   84  A    between atoms: _208  and  _210
REMARK   85  A    between atoms: _210  and  _211
REMARK   86  A    between atoms: _214  and  _216
REMARK   87  A    between atoms: _216  and  _217
REMARK   88  A    between atoms: _216  and  _219
REMARK   89  A    between atoms: _221  and  _223
REMARK   90  A    between atoms: _223  and  _224
REMARK   91  A    between atoms: _223  and  _226
REMARK   92  A    between atoms: _226  and  _227
REMARK   93  A    between atoms: _230  and  _232
REMARK   94  A    between atoms: _232  and  _233
REMARK   95  A    between atoms: _232  and  _235
REMARK   96  A    between atoms: _239  and  _240
REMARK   97  A    between atoms: _245  and  _247
REMARK   98  A    between atoms: _247  and  _248
REMARK   99  A    between atoms: _247  and  _250
REMARK  100  A    between atoms: _253  and  _255
REMARK  101  A    between atoms: _255  and  _256
REMARK  102  A    between atoms: _255  and  _258
REMARK  103  A    between atoms: _258  and  _259
REMARK  104  A    between atoms: _262  and  _264
REMARK  105  A    between atoms: _264  and  _265
REMARK  106  A    between atoms: _264  and  _267
REMARK  107  A    between atoms: _267  and  _268
REMARK  108  A    between atoms: _268  and  _269
REMARK  109  A    between atoms: _271  and  _273
REMARK  110  A    between atoms: _273  and  _274
REMARK  111  A    between atoms: _273  and  _276
REMARK  112  A    between atoms: _276  and  _277
REMARK  113  A    between atoms: _277  and  _278
REMARK  114  A    between atoms: _278  and  _279
REMARK  115  A    between atoms: _279  and  _280
REMARK  116  A    between atoms: _284  and  _286
REMARK  117  A    between atoms: _286  and  _287
REMARK  118  A    between atoms: _286  and  _289
REMARK  119  A    between atoms: _289  and  _290
REMARK  120  A    between atoms: _293  and  _295
REMARK  121  A    between atoms: _295  and  _296
REMARK  122  A    between atoms: _295  and  _298
REMARK  123  A    between atoms: _298  and  _299
REMARK  124  A    between atoms: _301  and  _303
REMARK  125  A    between atoms: _303  and  _304
REMARK  126  A    between atoms: _303  and  _306
REMARK  127  A    between atoms: _306  and  _307
REMARK  128  A    between atoms: _307  and  _308
REMARK  129  A    between atoms: _308  and  _309
REMARK  130  A    between atoms: _318  and  _320
REMARK  131  A    between atoms: _320  and  _321
REMARK  132  A    between atoms: _320  and  _323
REMARK  133  A    between atoms: _323  and  _324
REMARK  134  A    between atoms: _329  and  _331
REMARK  135  A    between atoms: _331  and  _332
REMARK  136  A    between atoms: _331  and  _334
REMARK  137  A    between atoms: _334  and  _335
REMARK  138  A    between atoms: _337  and  _339
REMARK  139  A    between atoms: _339  and  _340
REMARK  140  A    between atoms: _339  and  _342
REMARK  141  A    between atoms: _345  and  _347
REMARK  142  A    between atoms: _347  and  _348
REMARK  143  A    between atoms: _351  and  _353
REMARK  144  A    between atoms: _353  and  _354
REMARK  145  A    between atoms: _353  and  _356
REMARK  146  A    between atoms: _356  and  _357
REMARK  147  A    between atoms: _362  and  _364
REMARK  148  A    between atoms: _364  and  _365
REMARK  149  A    between atoms: _364  and  _367
REMARK  150  A    between atoms: _369  and  _371
REMARK  151  A    between atoms: _371  and  _372
REMARK  152  A    between atoms: _371  and  _374
REMARK  153  A    between atoms: _374  and  _375
REMARK  154  A    between atoms: _377  and  _379
REMARK  155  A    between atoms: _379  and  _380
REMARK  156  A    between atoms: _379  and  _382
REMARK  157  A    between atoms: _382  and  _383
REMARK  158  A    between atoms: _383  and  _384
REMARK  159  A    between atoms: _386  and  _388
REMARK  160  A    between atoms: _388  and  _389
REMARK  161  A    between atoms: _388  and  _391
REMARK  162  A    between atoms: _391  and  _392
REMARK  163  A    between atoms: _392  and  _393
REMARK  164  A    between atoms: _396  and  _398
REMARK  165  A    between atoms: _398  and  _399
REMARK  166  A    between atoms: _398  and  _401
REMARK  167  A    between atoms: _404  and  _406
REMARK  168  A    between atoms: _406  and  _407
REMARK  169  A    between atoms: _409  and  _411
REMARK  170  A    between atoms: _411  and  _412
REMARK  171  A    between atoms: _414  and  _416
REMARK  172  A    between atoms: _416  and  _417
REMARK  173  A    between atoms: _416  and  _419
REMARK  174  A    between atoms: _419  and  _420
REMARK  175  A    between atoms: _425  and  _426
REMARK  176  A    between atoms: _428  and  _430
REMARK  177  A    between atoms: _430  and  _431
REMARK  178  A    between atoms: _430  and  _433
REMARK  179  A    between atoms: _433  and  _434
REMARK  180  A    between atoms: _437  and  _439
REMARK  181  A    between atoms: _439  and  _440
REMARK  182  A    between atoms: _443  and  _445
REMARK  183  A    between atoms: _445  and  _446
REMARK  184  A    between atoms: _445  and  _448
REMARK  185  A    between atoms: _448  and  _449
REMARK  186  A    between atoms: _452  and  _454
REMARK  187  A    between atoms: _454  and  _455
REMARK  188  A    between atoms: _454  and  _457
REMARK  189  A    between atoms: _457  and  _458
REMARK  190  A    between atoms: _461  and  _463
REMARK  191  A    between atoms: _463  and  _464
REMARK  192  A    between atoms: _463  and  _466
REMARK  193  A    between atoms: _466  and  _467
REMARK  194  A    between atoms: _470  and  _472
REMARK  195  A    between atoms: _472  and  _473
REMARK  196  A    between atoms: _472  and  _475
REMARK  197  A    between atoms: _478  and  _480
REMARK  198  A    between atoms: _480  and  _481
REMARK                            x       y       z     vdW  Elec       q    Type
REMARK                         _______ _______ _______ _____ _____    ______ ____
ROOT
ATOM      1  O   HOH     1     -18.417  31.244  -1.940  0.00  0.00    +0.000 OA
ENDROOT
TORSDOF 0
