REMARK  Name = ../refined-set-2016/4qdk/4qdk_pocket.pdb
REMARK  228 active torsions:
REMARK  status: ('A' for Active; 'I' for Inactive)
REMARK    1  A    between atoms: _1  and  _3
REMARK    2  A    between atoms: _3  and  _4
REMARK    3  A    between atoms: _3  and  _6
REMARK    4  A    between atoms: _6  and  _7
REMARK    5  A    between atoms: _10  and  _12
REMARK    6  A    between atoms: _12  and  _13
REMARK    7  A    between atoms: _12  and  _15
REMARK    8  A    between atoms: _15  and  _16
REMARK    9  A    between atoms: _16  and  _17
REMARK   10  A    between atoms: _17  and  _18
REMARK   11  A    between atoms: _18  and  _19
REMARK   12  A    between atoms: _23  and  _25
REMARK   13  A    between atoms: _25  and  _26
REMARK   14  A    between atoms: _25  and  _28
REMARK   15  A    between atoms: _28  and  _29
REMARK   16  A    between atoms: _32  and  _34
REMARK   17  A    between atoms: _34  and  _35
REMARK   18  A    between atoms: _34  and  _37
REMARK   19  A    between atoms: _40  and  _42
REMARK   20  A    between atoms: _42  and  _43
REMARK   21  A    between atoms: _42  and  _45
REMARK   22  A    between atoms: _45  and  _46
REMARK   23  A    between atoms: _46  and  _47
REMARK   24  A    between atoms: _47  and  _48
REMARK   25  A    between atoms: _57  and  _59
REMARK   26  A    between atoms: _59  and  _60
REMARK   27  A    between atoms: _59  and  _62
REMARK   28  A    between atoms: _62  and  _63
REMARK   29  A    between atoms: _66  and  _68
REMARK   30  A    between atoms: _68  and  _69
REMARK   31  A    between atoms: _68  and  _71
REMARK   32  A    between atoms: _71  and  _72
REMARK   33  A    between atoms: _77  and  _78
REMARK   34  A    between atoms: _80  and  _82
REMARK   35  A    between atoms: _82  and  _83
REMARK   36  A    between atoms: _82  and  _85
REMARK   37  A    between atoms: _85  and  _86
REMARK   38  A    between atoms: _92  and  _94
REMARK   39  A    between atoms: _94  and  _95
REMARK   40  A    between atoms: _94  and  _97
REMARK   41  A    between atoms: _97  and  _98
REMARK   42  A    between atoms: _103  and  _105
REMARK   43  A    between atoms: _105  and  _106
REMARK   44  A    between atoms: _108  and  _110
REMARK   45  A    between atoms: _110  and  _111
REMARK   46  A    between atoms: _110  and  _113
REMARK   47  A    between atoms: _113  and  _114
REMARK   48  A    between atoms: _120  and  _122
REMARK   49  A    between atoms: _122  and  _123
REMARK   50  A    between atoms: _122  and  _125
REMARK   51  A    between atoms: _125  and  _126
REMARK   52  A    between atoms: _136  and  _138
REMARK   53  A    between atoms: _138  and  _139
REMARK   54  A    between atoms: _138  and  _141
REMARK   55  A    between atoms: _141  and  _142
REMARK   56  A    between atoms: _147  and  _148
REMARK   57  A    between atoms: _150  and  _152
REMARK   58  A    between atoms: _152  and  _153
REMARK   59  A    between atoms: _152  and  _155
REMARK   60  A    between atoms: _155  and  _156
REMARK   61  A    between atoms: _161  and  _163
REMARK   62  A    between atoms: _163  and  _164
REMARK   63  A    between atoms: _163  and  _166
REMARK   64  A    between atoms: _166  and  _167
REMARK   65  A    between atoms: _167  and  _168
REMARK   66  A    between atoms: _173  and  _175
REMARK   67  A    between atoms: _175  and  _176
REMARK   68  A    between atoms: _175  and  _178
REMARK   69  A    between atoms: _178  and  _179
REMARK   70  A    between atoms: _182  and  _184
REMARK   71  A    between atoms: _184  and  _185
REMARK   72  A    between atoms: _184  and  _187
REMARK   73  A    between atoms: _190  and  _192
REMARK   74  A    between atoms: _192  and  _193
REMARK   75  A    between atoms: _192  and  _195
REMARK   76  A    between atoms: _195  and  _196
REMARK   77  A    between atoms: _199  and  _201
REMARK   78  A    between atoms: _201  and  _202
REMARK   79  A    between atoms: _205  and  _207
REMARK   80  A    between atoms: _207  and  _208
REMARK   81  A    between atoms: _210  and  _212
REMARK   82  A    between atoms: _212  and  _213
REMARK   83  A    between atoms: _212  and  _215
REMARK   84  A    between atoms: _217  and  _219
REMARK   85  A    between atoms: _219  and  _220
REMARK   86  A    between atoms: _222  and  _224
REMARK   87  A    between atoms: _224  and  _225
REMARK   88  A    between atoms: _224  and  _227
REMARK   89  A    between atoms: _230  and  _232
REMARK   90  A    between atoms: _232  and  _233
REMARK   91  A    between atoms: _235  and  _237
REMARK   92  A    between atoms: _237  and  _238
REMARK   93  A    between atoms: _237  and  _240
REMARK   94  A    between atoms: _240  and  _241
REMARK   95  A    between atoms: _243  and  _245
REMARK   96  A    between atoms: _245  and  _246
REMARK   97  A    between atoms: _245  and  _248
REMARK   98  A    between atoms: _248  and  _249
REMARK   99  A    between atoms: _252  and  _254
REMARK  100  A    between atoms: _254  and  _255
REMARK  101  A    between atoms: _254  and  _257
REMARK  102  A    between atoms: _257  and  _258
REMARK  103  A    between atoms: _260  and  _262
REMARK  104  A    between atoms: _262  and  _263
REMARK  105  A    between atoms: _262  and  _265
REMARK  106  A    between atoms: _265  and  _266
REMARK  107  A    between atoms: _268  and  _270
REMARK  108  A    between atoms: _270  and  _271
REMARK  109  A    between atoms: _270  and  _273
REMARK  110  A    between atoms: _273  and  _274
REMARK  111  A    between atoms: _277  and  _279
REMARK  112  A    between atoms: _279  and  _280
REMARK  113  A    between atoms: _279  and  _282
REMARK  114  A    between atoms: _282  and  _283
REMARK  115  A    between atoms: _286  and  _288
REMARK  116  A    between atoms: _288  and  _289
REMARK  117  A    between atoms: _288  and  _291
REMARK  118  A    between atoms: _291  and  _292
REMARK  119  A    between atoms: _294  and  _296
REMARK  120  A    between atoms: _296  and  _297
REMARK  121  A    between atoms: _296  and  _299
REMARK  122  A    between atoms: _299  and  _300
REMARK  123  A    between atoms: _300  and  _301
REMARK  124  A    between atoms: _304  and  _306
REMARK  125  A    between atoms: _306  and  _307
REMARK  126  A    between atoms: _306  and  _309
REMARK  127  A    between atoms: _309  and  _310
REMARK  128  A    between atoms: _310  and  _311
REMARK  129  A    between atoms: _311  and  _312
REMARK  130  A    between atoms: _312  and  _313
REMARK  131  A    between atoms: _317  and  _319
REMARK  132  A    between atoms: _319  and  _320
REMARK  133  A    between atoms: _319  and  _322
REMARK  134  A    between atoms: _322  and  _323
REMARK  135  A    between atoms: _323  and  _324
REMARK  136  A    between atoms: _326  and  _328
REMARK  137  A    between atoms: _328  and  _329
REMARK  138  A    between atoms: _328  and  _331
REMARK  139  A    between atoms: _334  and  _336
REMARK  140  A    between atoms: _336  and  _337
REMARK  141  A    between atoms: _336  and  _339
REMARK  142  A    between atoms: _339  and  _340
REMARK  143  A    between atoms: _340  and  _341
REMARK  144  A    between atoms: _343  and  _345
REMARK  145  A    between atoms: _345  and  _346
REMARK  146  A    between atoms: _345  and  _348
REMARK  147  A    between atoms: _348  and  _349
REMARK  148  A    between atoms: _352  and  _354
REMARK  149  A    between atoms: _354  and  _355
REMARK  150  A    between atoms: _354  and  _357
REMARK  151  A    between atoms: _357  and  _358
REMARK  152  A    between atoms: _358  and  _359
REMARK  153  A    between atoms: _364  and  _366
REMARK  154  A    between atoms: _366  and  _367
REMARK  155  A    between atoms: _366  and  _369
REMARK  156  A    between atoms: _369  and  _370
REMARK  157  A    between atoms: _373  and  _375
REMARK  158  A    between atoms: _375  and  _376
REMARK  159  A    between atoms: _375  and  _378
REMARK  160  A    between atoms: _378  and  _379
REMARK  161  A    between atoms: _382  and  _384
REMARK  162  A    between atoms: _384  and  _385
REMARK  163  A    between atoms: _388  and  _390
REMARK  164  A    between atoms: _390  and  _391
REMARK  165  A    between atoms: _390  and  _393
REMARK  166  A    between atoms: _393  and  _394
REMARK  167  A    between atoms: _394  and  _395
REMARK  168  A    between atoms: _400  and  _402
REMARK  169  A    between atoms: _402  and  _403
REMARK  170  A    between atoms: _402  and  _405
REMARK  171  A    between atoms: _405  and  _406
REMARK  172  A    between atoms: _409  and  _411
REMARK  173  A    between atoms: _411  and  _412
REMARK  174  A    between atoms: _411  and  _414
REMARK  175  A    between atoms: _414  and  _415
REMARK  176  A    between atoms: _418  and  _420
REMARK  177  A    between atoms: _420  and  _421
REMARK  178  A    between atoms: _420  and  _423
REMARK  179  A    between atoms: _425  and  _427
REMARK  180  A    between atoms: _427  and  _428
REMARK  181  A    between atoms: _427  and  _430
REMARK  182  A    between atoms: _430  and  _431
REMARK  183  A    between atoms: _434  and  _436
REMARK  184  A    between atoms: _436  and  _437
REMARK  185  A    between atoms: _436  and  _439
REMARK  186  A    between atoms: _439  and  _440
REMARK  187  A    between atoms: _443  and  _445
REMARK  188  A    between atoms: _445  and  _446
REMARK  189  A    between atoms: _445  and  _448
REMARK  190  A    between atoms: _451  and  _453
REMARK  191  A    between atoms: _453  and  _454
REMARK  192  A    between atoms: _453  and  _456
REMARK  193  A    between atoms: _456  and  _457
REMARK  194  A    between atoms: _460  and  _462
REMARK  195  A    between atoms: _462  and  _463
REMARK  196  A    between atoms: _462  and  _465
REMARK  197  A    between atoms: _465  and  _466
REMARK  198  A    between atoms: _469  and  _471
REMARK  199  A    between atoms: _471  and  _472
REMARK  200  A    between atoms: _471  and  _474
REMARK  201  A    between atoms: _474  and  _475
REMARK  202  A    between atoms: _480  and  _482
REMARK  203  A    between atoms: _482  and  _483
REMARK  204  A    between atoms: _482  and  _485
REMARK  205  A    between atoms: _485  and  _486
REMARK  206  A    between atoms: _491  and  _492
REMARK  207  A    between atoms: _494  and  _496
REMARK  208  A    between atoms: _496  and  _497
REMARK  209  A    between atoms: _496  and  _499
REMARK  210  A    between atoms: _499  and  _500
REMARK  211  A    between atoms: _500  and  _501
REMARK  212  A    between atoms: _503  and  _505
REMARK  213  A    between atoms: _505  and  _506
REMARK  214  A    between atoms: _505  and  _508
REMARK  215  A    between atoms: _508  and  _509
REMARK  216  A    between atoms: _512  and  _514
REMARK  217  A    between atoms: _514  and  _515
REMARK  218  A    between atoms: _514  and  _517
REMARK  219  A    between atoms: _517  and  _518
REMARK  220  A    between atoms: _520  and  _522
REMARK  221  A    between atoms: _522  and  _523
REMARK  222  A    between atoms: _522  and  _525
REMARK  223  A    between atoms: _525  and  _526
REMARK  224  A    between atoms: _531  and  _532
REMARK  225  A    between atoms: _534  and  _536
REMARK  226  A    between atoms: _536  and  _537
REMARK  227  A    between atoms: _536  and  _539
REMARK  228  A    between atoms: _539  and  _540
REMARK                            x       y       z     vdW  Elec       q    Type
REMARK                         _______ _______ _______ _____ _____    ______ ____
ROOT
ATOM      1  CA  LYS A   2      15.553   4.990   1.725  0.00  0.00    +0.149 C 
ENDROOT
BRANCH   1   4
ATOM      2  C   ASP A   1      13.847   6.725   1.924  0.00  0.00    +0.239 C 
ATOM      3  O   ASP A   1      14.600   7.466   2.554  0.00  0.00    -0.274 OA
ATOM      4  N   LYS A   2      14.212   5.522   1.489  0.00  0.00    -0.297 N 
ATOM      5  H   LYS A   2      13.524   4.944   0.966  0.00  0.00    +0.150 HD
BRANCH   2   6
ATOM      6  CA  ASP A   1      12.420   7.164   1.602  0.00  0.00    +0.156 C 
BRANCH   6   7
ATOM      7  N   ASP A   1      12.009   6.760   0.261  0.00  0.00    -0.238 NA
ATOM      8  H   ASP A   1      11.198   6.118   0.150  0.00  0.00    +0.142 HD
ENDBRANCH   6   7
BRANCH   6   9
ATOM      9  CB  ASP A   1      11.450   6.620   2.655  0.00  0.00    +0.140 C 
BRANCH   9  10
ATOM     10  CG  ASP A   1      10.118   7.343   2.649  0.00  0.00    +0.367 C 
ATOM     11  OD2 ASP A   1       9.116   6.751   3.102  0.00  0.00    -0.246 OA
ATOM     12  OD1 ASP A   1      10.072   8.506   2.196  0.00  0.00    -0.246 OA
ENDBRANCH   9  10
ENDBRANCH   6   9
ENDBRANCH   2   6
ENDBRANCH   1   4
BRANCH   1  13
ATOM     13  C   LYS A   2      16.640   5.902   1.165  0.00  0.00    +0.241 C 
ATOM     14  O   LYS A   2      17.636   6.176   1.835  0.00  0.00    -0.273 OA
ATOM     15  N   THR A   3      16.442   6.369  -0.063  0.00  0.00    -0.296 N 
ATOM     16  H   THR A   3      15.575   6.103  -0.571  0.00  0.00    +0.150 HD
BRANCH  15  17
ATOM     17  CA  THR A   3      17.407   7.245  -0.719  0.00  0.00    +0.164 C 
BRANCH  17  18
ATOM     18  C   THR A   3      17.539   8.572   0.023  0.00  0.00    +0.229 C 
ATOM     19  O   THR A   3      18.645   9.080   0.216  0.00  0.00    -0.286 OA
ENDBRANCH  17  18
BRANCH  17  20
ATOM     20  CB  THR A   3      17.015   7.508  -2.187  0.00  0.00    +0.136 C 
ATOM     21  CG2 THR A   3      18.032   8.415  -2.865  0.00  0.00    +0.034 C 
BRANCH  20  22
ATOM     22  OG1 THR A   3      16.950   6.263  -2.892  0.00  0.00    -0.382 OA
ATOM     23  HG1 THR A   3      16.698   6.432  -3.835  0.00  0.00    +0.210 HD
ENDBRANCH  20  22
ENDBRANCH  17  20
ENDBRANCH  15  17
ENDBRANCH   1  13
BRANCH   1  24
ATOM     24  CB  LYS A   2      15.694   3.593   1.121  0.00  0.00    +0.029 C 
BRANCH  24  25
ATOM     25  CG  LYS A   2      15.031   2.492   1.926  0.00  0.00    +0.000 C 
BRANCH  25  26
ATOM     26  CD  LYS A   2      15.154   1.157   1.215  0.00  0.00    -0.024 C 
BRANCH  26  27
ATOM     27  CE  LYS A   2      14.579   0.028   2.050  0.00  0.00    -0.086 C 
BRANCH  27  28
ATOM     28  NZ  LYS A   2      14.445  -1.216   1.240  0.00  0.00    +0.380 N 
ATOM     29  HZ1 LYS A   2      14.050  -1.973   1.833  0.00  0.00    -0.089 HD
ATOM     30  HZ2 LYS A   2      15.381  -1.502   0.889  0.00  0.00    -0.089 HD
ATOM     31  HZ3 LYS A   2      13.811  -1.038   0.435  0.00  0.00    -0.089 HD
ENDBRANCH  27  28
ENDBRANCH  26  27
ENDBRANCH  25  26
ENDBRANCH  24  25
ENDBRANCH   1  24
TORSDOF 15
REMARK  Name = ../refined-set-2016/4qdk/4qdk_pocket.pdb
REMARK  228 active torsions:
REMARK  status: ('A' for Active; 'I' for Inactive)
REMARK    1  A    between atoms: _1  and  _3
REMARK    2  A    between atoms: _3  and  _4
REMARK    3  A    between atoms: _3  and  _6
REMARK    4  A    between atoms: _6  and  _7
REMARK    5  A    between atoms: _10  and  _12
REMARK    6  A    between atoms: _12  and  _13
REMARK    7  A    between atoms: _12  and  _15
REMARK    8  A    between atoms: _15  and  _16
REMARK    9  A    between atoms: _16  and  _17
REMARK   10  A    between atoms: _17  and  _18
REMARK   11  A    between atoms: _18  and  _19
REMARK   12  A    between atoms: _23  and  _25
REMARK   13  A    between atoms: _25  and  _26
REMARK   14  A    between atoms: _25  and  _28
REMARK   15  A    between atoms: _28  and  _29
REMARK   16  A    between atoms: _32  and  _34
REMARK   17  A    between atoms: _34  and  _35
REMARK   18  A    between atoms: _34  and  _37
REMARK   19  A    between atoms: _40  and  _42
REMARK   20  A    between atoms: _42  and  _43
REMARK   21  A    between atoms: _42  and  _45
REMARK   22  A    between atoms: _45  and  _46
REMARK   23  A    between atoms: _46  and  _47
REMARK   24  A    between atoms: _47  and  _48
REMARK   25  A    between atoms: _57  and  _59
REMARK   26  A    between atoms: _59  and  _60
REMARK   27  A    between atoms: _59  and  _62
REMARK   28  A    between atoms: _62  and  _63
REMARK   29  A    between atoms: _66  and  _68
REMARK   30  A    between atoms: _68  and  _69
REMARK   31  A    between atoms: _68  and  _71
REMARK   32  A    between atoms: _71  and  _72
REMARK   33  A    between atoms: _77  and  _78
REMARK   34  A    between atoms: _80  and  _82
REMARK   35  A    between atoms: _82  and  _83
REMARK   36  A    between atoms: _82  and  _85
REMARK   37  A    between atoms: _85  and  _86
REMARK   38  A    between atoms: _92  and  _94
REMARK   39  A    between atoms: _94  and  _95
REMARK   40  A    between atoms: _94  and  _97
REMARK   41  A    between atoms: _97  and  _98
REMARK   42  A    between atoms: _103  and  _105
REMARK   43  A    between atoms: _105  and  _106
REMARK   44  A    between atoms: _108  and  _110
REMARK   45  A    between atoms: _110  and  _111
REMARK   46  A    between atoms: _110  and  _113
REMARK   47  A    between atoms: _113  and  _114
REMARK   48  A    between atoms: _120  and  _122
REMARK   49  A    between atoms: _122  and  _123
REMARK   50  A    between atoms: _122  and  _125
REMARK   51  A    between atoms: _125  and  _126
REMARK   52  A    between atoms: _136  and  _138
REMARK   53  A    between atoms: _138  and  _139
REMARK   54  A    between atoms: _138  and  _141
REMARK   55  A    between atoms: _141  and  _142
REMARK   56  A    between atoms: _147  and  _148
REMARK   57  A    between atoms: _150  and  _152
REMARK   58  A    between atoms: _152  and  _153
REMARK   59  A    between atoms: _152  and  _155
REMARK   60  A    between atoms: _155  and  _156
REMARK   61  A    between atoms: _161  and  _163
REMARK   62  A    between atoms: _163  and  _164
REMARK   63  A    between atoms: _163  and  _166
REMARK   64  A    between atoms: _166  and  _167
REMARK   65  A    between atoms: _167  and  _168
REMARK   66  A    between atoms: _173  and  _175
REMARK   67  A    between atoms: _175  and  _176
REMARK   68  A    between atoms: _175  and  _178
REMARK   69  A    between atoms: _178  and  _179
REMARK   70  A    between atoms: _182  and  _184
REMARK   71  A    between atoms: _184  and  _185
REMARK   72  A    between atoms: _184  and  _187
REMARK   73  A    between atoms: _190  and  _192
REMARK   74  A    between atoms: _192  and  _193
REMARK   75  A    between atoms: _192  and  _195
REMARK   76  A    between atoms: _195  and  _196
REMARK   77  A    between atoms: _199  and  _201
REMARK   78  A    between atoms: _201  and  _202
REMARK   79  A    between atoms: _205  and  _207
REMARK   80  A    between atoms: _207  and  _208
REMARK   81  A    between atoms: _210  and  _212
REMARK   82  A    between atoms: _212  and  _213
REMARK   83  A    between atoms: _212  and  _215
REMARK   84  A    between atoms: _217  and  _219
REMARK   85  A    between atoms: _219  and  _220
REMARK   86  A    between atoms: _222  and  _224
REMARK   87  A    between atoms: _224  and  _225
REMARK   88  A    between atoms: _224  and  _227
REMARK   89  A    between atoms: _230  and  _232
REMARK   90  A    between atoms: _232  and  _233
REMARK   91  A    between atoms: _235  and  _237
REMARK   92  A    between atoms: _237  and  _238
REMARK   93  A    between atoms: _237  and  _240
REMARK   94  A    between atoms: _240  and  _241
REMARK   95  A    between atoms: _243  and  _245
REMARK   96  A    between atoms: _245  and  _246
REMARK   97  A    between atoms: _245  and  _248
REMARK   98  A    between atoms: _248  and  _249
REMARK   99  A    between atoms: _252  and  _254
REMARK  100  A    between atoms: _254  and  _255
REMARK  101  A    between atoms: _254  and  _257
REMARK  102  A    between atoms: _257  and  _258
REMARK  103  A    between atoms: _260  and  _262
REMARK  104  A    between atoms: _262  and  _263
REMARK  105  A    between atoms: _262  and  _265
REMARK  106  A    between atoms: _265  and  _266
REMARK  107  A    between atoms: _268  and  _270
REMARK  108  A    between atoms: _270  and  _271
REMARK  109  A    between atoms: _270  and  _273
REMARK  110  A    between atoms: _273  and  _274
REMARK  111  A    between atoms: _277  and  _279
REMARK  112  A    between atoms: _279  and  _280
REMARK  113  A    between atoms: _279  and  _282
REMARK  114  A    between atoms: _282  and  _283
REMARK  115  A    between atoms: _286  and  _288
REMARK  116  A    between atoms: _288  and  _289
REMARK  117  A    between atoms: _288  and  _291
REMARK  118  A    between atoms: _291  and  _292
REMARK  119  A    between atoms: _294  and  _296
REMARK  120  A    between atoms: _296  and  _297
REMARK  121  A    between atoms: _296  and  _299
REMARK  122  A    between atoms: _299  and  _300
REMARK  123  A    between atoms: _300  and  _301
REMARK  124  A    between atoms: _304  and  _306
REMARK  125  A    between atoms: _306  and  _307
REMARK  126  A    between atoms: _306  and  _309
REMARK  127  A    between atoms: _309  and  _310
REMARK  128  A    between atoms: _310  and  _311
REMARK  129  A    between atoms: _311  and  _312
REMARK  130  A    between atoms: _312  and  _313
REMARK  131  A    between atoms: _317  and  _319
REMARK  132  A    between atoms: _319  and  _320
REMARK  133  A    between atoms: _319  and  _322
REMARK  134  A    between atoms: _322  and  _323
REMARK  135  A    between atoms: _323  and  _324
REMARK  136  A    between atoms: _326  and  _328
REMARK  137  A    between atoms: _328  and  _329
REMARK  138  A    between atoms: _328  and  _331
REMARK  139  A    between atoms: _334  and  _336
REMARK  140  A    between atoms: _336  and  _337
REMARK  141  A    between atoms: _336  and  _339
REMARK  142  A    between atoms: _339  and  _340
REMARK  143  A    between atoms: _340  and  _341
REMARK  144  A    between atoms: _343  and  _345
REMARK  145  A    between atoms: _345  and  _346
REMARK  146  A    between atoms: _345  and  _348
REMARK  147  A    between atoms: _348  and  _349
REMARK  148  A    between atoms: _352  and  _354
REMARK  149  A    between atoms: _354  and  _355
REMARK  150  A    between atoms: _354  and  _357
REMARK  151  A    between atoms: _357  and  _358
REMARK  152  A    between atoms: _358  and  _359
REMARK  153  A    between atoms: _364  and  _366
REMARK  154  A    between atoms: _366  and  _367
REMARK  155  A    between atoms: _366  and  _369
REMARK  156  A    between atoms: _369  and  _370
REMARK  157  A    between atoms: _373  and  _375
REMARK  158  A    between atoms: _375  and  _376
REMARK  159  A    between atoms: _375  and  _378
REMARK  160  A    between atoms: _378  and  _379
REMARK  161  A    between atoms: _382  and  _384
REMARK  162  A    between atoms: _384  and  _385
REMARK  163  A    between atoms: _388  and  _390
REMARK  164  A    between atoms: _390  and  _391
REMARK  165  A    between atoms: _390  and  _393
REMARK  166  A    between atoms: _393  and  _394
REMARK  167  A    between atoms: _394  and  _395
REMARK  168  A    between atoms: _400  and  _402
REMARK  169  A    between atoms: _402  and  _403
REMARK  170  A    between atoms: _402  and  _405
REMARK  171  A    between atoms: _405  and  _406
REMARK  172  A    between atoms: _409  and  _411
REMARK  173  A    between atoms: _411  and  _412
REMARK  174  A    between atoms: _411  and  _414
REMARK  175  A    between atoms: _414  and  _415
REMARK  176  A    between atoms: _418  and  _420
REMARK  177  A    between atoms: _420  and  _421
REMARK  178  A    between atoms: _420  and  _423
REMARK  179  A    between atoms: _425  and  _427
REMARK  180  A    between atoms: _427  and  _428
REMARK  181  A    between atoms: _427  and  _430
REMARK  182  A    between atoms: _430  and  _431
REMARK  183  A    between atoms: _434  and  _436
REMARK  184  A    between atoms: _436  and  _437
REMARK  185  A    between atoms: _436  and  _439
REMARK  186  A    between atoms: _439  and  _440
REMARK  187  A    between atoms: _443  and  _445
REMARK  188  A    between atoms: _445  and  _446
REMARK  189  A    between atoms: _445  and  _448
REMARK  190  A    between atoms: _451  and  _453
REMARK  191  A    between atoms: _453  and  _454
REMARK  192  A    between atoms: _453  and  _456
REMARK  193  A    between atoms: _456  and  _457
REMARK  194  A    between atoms: _460  and  _462
REMARK  195  A    between atoms: _462  and  _463
REMARK  196  A    between atoms: _462  and  _465
REMARK  197  A    between atoms: _465  and  _466
REMARK  198  A    between atoms: _469  and  _471
REMARK  199  A    between atoms: _471  and  _472
REMARK  200  A    between atoms: _471  and  _474
REMARK  201  A    between atoms: _474  and  _475
REMARK  202  A    between atoms: _480  and  _482
REMARK  203  A    between atoms: _482  and  _483
REMARK  204  A    between atoms: _482  and  _485
REMARK  205  A    between atoms: _485  and  _486
REMARK  206  A    between atoms: _491  and  _492
REMARK  207  A    between atoms: _494  and  _496
REMARK  208  A    between atoms: _496  and  _497
REMARK  209  A    between atoms: _496  and  _499
REMARK  210  A    between atoms: _499  and  _500
REMARK  211  A    between atoms: _500  and  _501
REMARK  212  A    between atoms: _503  and  _505
REMARK  213  A    between atoms: _505  and  _506
REMARK  214  A    between atoms: _505  and  _508
REMARK  215  A    between atoms: _508  and  _509
REMARK  216  A    between atoms: _512  and  _514
REMARK  217  A    between atoms: _514  and  _515
REMARK  218  A    between atoms: _514  and  _517
REMARK  219  A    between atoms: _517  and  _518
REMARK  220  A    between atoms: _520  and  _522
REMARK  221  A    between atoms: _522  and  _523
REMARK  222  A    between atoms: _522  and  _525
REMARK  223  A    between atoms: _525  and  _526
REMARK  224  A    between atoms: _531  and  _532
REMARK  225  A    between atoms: _534  and  _536
REMARK  226  A    between atoms: _536  and  _537
REMARK  227  A    between atoms: _536  and  _539
REMARK  228  A    between atoms: _539  and  _540
REMARK                            x       y       z     vdW  Elec       q    Type
REMARK                         _______ _______ _______ _____ _____    ______ ____
ROOT
ATOM      1  C   ASP A   3      21.896  11.862   2.495  0.00  0.00    +0.241 C 
ATOM      2  N   TYR A   4      20.918  11.922   3.393  0.00  0.00    -0.297 N 
ATOM      3  H   TYR A   4      20.057  11.357   3.244  0.00  0.00    +0.150 HD
ATOM      4  O   ASP A   3      22.931  12.522   2.581  0.00  0.00    -0.273 OA
ENDROOT
BRANCH   1   5
ATOM      5  CA  ASP A   3      21.676  10.910   1.325  0.00  0.00    +0.160 C 
BRANCH   5   8
ATOM      6  C   ARG A   2      21.547   8.860   2.632  0.00  0.00    +0.241 C 
ATOM      7  O   ARG A   2      22.639   9.069   3.159  0.00  0.00    -0.273 OA
ATOM      8  N   ASP A   3      21.000   9.687   1.747  0.00  0.00    -0.297 N 
ATOM      9  H   ASP A   3      20.068   9.457   1.346  0.00  0.00    +0.150 HD
BRANCH   6  10
ATOM     10  CA  ARG A   2      20.745   7.608   2.974  0.00  0.00    +0.149 C 
BRANCH  10  13
ATOM     11  C   VAL A   1      19.042   8.737   4.312  0.00  0.00    +0.238 C 
ATOM     12  O   VAL A   1      19.884   9.260   5.044  0.00  0.00    -0.274 OA
ATOM     13  N   ARG A   2      19.358   7.930   3.304  0.00  0.00    -0.297 N 
ATOM     14  H   ARG A   2      18.595   7.515   2.733  0.00  0.00    +0.150 HD
BRANCH  11  15
ATOM     15  CA  VAL A   1      17.551   9.001   4.523  0.00  0.00    +0.145 C 
BRANCH  15  16
ATOM     16  CB  VAL A   1      16.923   7.840   5.321  0.00  0.00    +0.025 C 
ATOM     17  CG2 VAL A   1      17.639   7.660   6.648  0.00  0.00    +0.002 C 
ATOM     18  CG1 VAL A   1      15.447   8.102   5.553  0.00  0.00    +0.002 C 
ENDBRANCH  15  16
BRANCH  15  19
ATOM     19  N   VAL A   1      16.874   9.211   3.249  0.00  0.00    -0.238 NA
ATOM     20  H   VAL A   1      16.174   8.515   2.921  0.00  0.00    +0.142 HD
ENDBRANCH  15  19
ENDBRANCH  11  15
ENDBRANCH  10  13
BRANCH  10  21
ATOM     21  CB  ARG A   2      20.804   6.622   1.804  0.00  0.00    +0.033 C 
BRANCH  21  22
ATOM     22  CG  ARG A   2      22.212   6.279   1.346  0.00  0.00    +0.045 C 
BRANCH  22  23
ATOM     23  CD  ARG A   2      22.182   5.496   0.040  0.00  0.00    +0.174 C 
BRANCH  23  24
ATOM     24  NE  ARG A   2      21.561   6.260  -1.040  0.00  0.00    -0.265 N 
ATOM     25  HE  ARG A   2      20.523   6.312  -1.063  0.00  0.00    +0.259 HD
ATOM     26  CZ  ARG A   2      22.235   6.893  -1.995  0.00  0.00    +0.342 C 
ATOM     27  NH2 ARG A   2      23.560   6.851  -2.012  0.00  0.00    -0.292 N 
ATOM     28 HH21 ARG A   2      24.073   6.322  -1.278  0.00  0.00    +0.255 HD
ATOM     29 HH22 ARG A   2      24.086   7.347  -2.760  0.00  0.00    +0.255 HD
ATOM     30  NH1 ARG A   2      21.585   7.565  -2.937  0.00  0.00    -0.292 N 
ATOM     31 HH11 ARG A   2      20.546   7.597  -2.929  0.00  0.00    +0.255 HD
ATOM     32 HH12 ARG A   2      22.115   8.059  -3.683  0.00  0.00    +0.255 HD
ENDBRANCH  23  24
ENDBRANCH  22  23
ENDBRANCH  21  22
ENDBRANCH  10  21
ENDBRANCH   6  10
ENDBRANCH   5   8
BRANCH   5  33
ATOM     33  CB  ASP A   3      20.889  11.616   0.220  0.00  0.00    +0.143 C 
BRANCH  33  34
ATOM     34  CG  ASP A   3      20.860  10.824  -1.070  0.00  0.00    +0.367 C 
ATOM     35  OD2 ASP A   3      21.629   9.847  -1.188  0.00  0.00    -0.246 OA
ATOM     36  OD1 ASP A   3      20.074  11.186  -1.970  0.00  0.00    -0.246 OA
ENDBRANCH  33  34
ENDBRANCH   5  33
ENDBRANCH   1   5
BRANCH   2  37
ATOM     37  CA  TYR A   4      21.022  12.760   4.581  0.00  0.00    +0.153 C 
BRANCH  37  38
ATOM     38  C   TYR A   4      22.196  12.329   5.456  0.00  0.00    +0.241 C 
ATOM     39  O   TYR A   4      23.036  13.146   5.829  0.00  0.00    -0.273 OA
ATOM     40  N   PHE A   5      22.261  11.040   5.769  0.00  0.00    -0.297 N 
ATOM     41  H   PHE A   5      21.540  10.388   5.400  0.00  0.00    +0.150 HD
BRANCH  40  42
ATOM     42  CA  PHE A   5      23.327  10.521   6.622  0.00  0.00    +0.153 C 
BRANCH  42  43
ATOM     43  C   PHE A   5      24.677  10.416   5.909  0.00  0.00    +0.241 C 
ATOM     44  O   PHE A   5      25.680  10.057   6.524  0.00  0.00    -0.273 OA
ATOM     45  N   ASN A   6      24.698  10.729   4.616  0.00  0.00    -0.298 N 
ATOM     46  H   ASN A   6      23.800  10.918   4.127  0.00  0.00    +0.150 HD
BRANCH  45  47
ATOM     47  CA  ASN A   6      25.948  10.815   3.864  0.00  0.00    +0.146 C 
BRANCH  47  48
ATOM     48  C   ASN A   6      26.399  12.260   3.669  0.00  0.00    +0.227 C 
ATOM     49  O   ASN A   6      27.429  12.519   3.045  0.00  0.00    -0.286 OA
ENDBRANCH  47  48
BRANCH  47  50
ATOM     50  CB  ASN A   6      25.826  10.118   2.504  0.00  0.00    +0.112 C 
BRANCH  50  51
ATOM     51  CG  ASN A   6      26.069   8.622   2.589  0.00  0.00    +0.222 C 
ATOM     52  OD1 ASN A   6      26.723   8.139   3.512  0.00  0.00    -0.275 OA
ATOM     53  ND2 ASN A   6      25.550   7.881   1.615  0.00  0.00    -0.329 N 
ATOM     54 HD21 ASN A   6      25.691   6.851   1.614  0.00  0.00    +0.145 HD
ATOM     55 HD22 ASN A   6      25.003   8.332   0.854  0.00  0.00    +0.145 HD
ENDBRANCH  50  51
ENDBRANCH  47  50
ENDBRANCH  45  47
ENDBRANCH  42  43
BRANCH  42  56
ATOM     56  CB  PHE A   5      22.926   9.177   7.240  0.00  0.00    +0.055 C 
BRANCH  56  57
ATOM     57  CG  PHE A   5      21.960   9.302   8.389  0.00  0.00    -0.020 A 
ATOM     58  CD2 PHE A   5      22.410   9.648   9.651  0.00  0.00    -0.004 A 
ATOM     59  CE2 PHE A   5      21.533   9.767  10.711  0.00  0.00    -0.000 A 
ATOM     60  CZ  PHE A   5      20.187   9.544  10.516  0.00  0.00    -0.000 A 
ATOM     61  CE1 PHE A   5      19.722   9.199   9.262  0.00  0.00    -0.000 A 
ATOM     62  CD1 PHE A   5      20.607   9.081   8.206  0.00  0.00    -0.004 A 
ENDBRANCH  56  57
ENDBRANCH  42  56
ENDBRANCH  40  42
ENDBRANCH  37  38
BRANCH  37  63
ATOM     63  CB  TYR A   4      19.721  12.724   5.387  0.00  0.00    +0.055 C 
BRANCH  63  64
ATOM     64  CG  TYR A   4      19.824  13.448   6.706  0.00  0.00    -0.020 A 
ATOM     65  CD2 TYR A   4      19.871  12.747   7.904  0.00  0.00    -0.001 A 
ATOM     66  CE2 TYR A   4      19.971  13.405   9.112  0.00  0.00    +0.036 A 
ATOM     67  CZ  TYR A   4      20.028  14.783   9.131  0.00  0.00    +0.134 A 
ATOM     68  CE1 TYR A   4      19.988  15.502   7.955  0.00  0.00    +0.036 A 
ATOM     69  CD1 TYR A   4      19.885  14.834   6.753  0.00  0.00    -0.001 A 
BRANCH  67  70
ATOM     70  OH  TYR A   4      20.139  15.444  10.329  0.00  0.00    -0.506 OA
ATOM     71  HH  TYR A   4      20.167  16.420  10.165  0.00  0.00    +0.292 HD
ENDBRANCH  67  70
ENDBRANCH  63  64
ENDBRANCH  37  63
ENDBRANCH   2  37
TORSDOF 26
REMARK  Name = ../refined-set-2016/4qdk/4qdk_pocket.pdb
REMARK  228 active torsions:
REMARK  status: ('A' for Active; 'I' for Inactive)
REMARK    1  A    between atoms: _1  and  _3
REMARK    2  A    between atoms: _3  and  _4
REMARK    3  A    between atoms: _3  and  _6
REMARK    4  A    between atoms: _6  and  _7
REMARK    5  A    between atoms: _10  and  _12
REMARK    6  A    between atoms: _12  and  _13
REMARK    7  A    between atoms: _12  and  _15
REMARK    8  A    between atoms: _15  and  _16
REMARK    9  A    between atoms: _16  and  _17
REMARK   10  A    between atoms: _17  and  _18
REMARK   11  A    between atoms: _18  and  _19
REMARK   12  A    between atoms: _23  and  _25
REMARK   13  A    between atoms: _25  and  _26
REMARK   14  A    between atoms: _25  and  _28
REMARK   15  A    between atoms: _28  and  _29
REMARK   16  A    between atoms: _32  and  _34
REMARK   17  A    between atoms: _34  and  _35
REMARK   18  A    between atoms: _34  and  _37
REMARK   19  A    between atoms: _40  and  _42
REMARK   20  A    between atoms: _42  and  _43
REMARK   21  A    between atoms: _42  and  _45
REMARK   22  A    between atoms: _45  and  _46
REMARK   23  A    between atoms: _46  and  _47
REMARK   24  A    between atoms: _47  and  _48
REMARK   25  A    between atoms: _57  and  _59
REMARK   26  A    between atoms: _59  and  _60
REMARK   27  A    between atoms: _59  and  _62
REMARK   28  A    between atoms: _62  and  _63
REMARK   29  A    between atoms: _66  and  _68
REMARK   30  A    between atoms: _68  and  _69
REMARK   31  A    between atoms: _68  and  _71
REMARK   32  A    between atoms: _71  and  _72
REMARK   33  A    between atoms: _77  and  _78
REMARK   34  A    between atoms: _80  and  _82
REMARK   35  A    between atoms: _82  and  _83
REMARK   36  A    between atoms: _82  and  _85
REMARK   37  A    between atoms: _85  and  _86
REMARK   38  A    between atoms: _92  and  _94
REMARK   39  A    between atoms: _94  and  _95
REMARK   40  A    between atoms: _94  and  _97
REMARK   41  A    between atoms: _97  and  _98
REMARK   42  A    between atoms: _103  and  _105
REMARK   43  A    between atoms: _105  and  _106
REMARK   44  A    between atoms: _108  and  _110
REMARK   45  A    between atoms: _110  and  _111
REMARK   46  A    between atoms: _110  and  _113
REMARK   47  A    between atoms: _113  and  _114
REMARK   48  A    between atoms: _120  and  _122
REMARK   49  A    between atoms: _122  and  _123
REMARK   50  A    between atoms: _122  and  _125
REMARK   51  A    between atoms: _125  and  _126
REMARK   52  A    between atoms: _136  and  _138
REMARK   53  A    between atoms: _138  and  _139
REMARK   54  A    between atoms: _138  and  _141
REMARK   55  A    between atoms: _141  and  _142
REMARK   56  A    between atoms: _147  and  _148
REMARK   57  A    between atoms: _150  and  _152
REMARK   58  A    between atoms: _152  and  _153
REMARK   59  A    between atoms: _152  and  _155
REMARK   60  A    between atoms: _155  and  _156
REMARK   61  A    between atoms: _161  and  _163
REMARK   62  A    between atoms: _163  and  _164
REMARK   63  A    between atoms: _163  and  _166
REMARK   64  A    between atoms: _166  and  _167
REMARK   65  A    between atoms: _167  and  _168
REMARK   66  A    between atoms: _173  and  _175
REMARK   67  A    between atoms: _175  and  _176
REMARK   68  A    between atoms: _175  and  _178
REMARK   69  A    between atoms: _178  and  _179
REMARK   70  A    between atoms: _182  and  _184
REMARK   71  A    between atoms: _184  and  _185
REMARK   72  A    between atoms: _184  and  _187
REMARK   73  A    between atoms: _190  and  _192
REMARK   74  A    between atoms: _192  and  _193
REMARK   75  A    between atoms: _192  and  _195
REMARK   76  A    between atoms: _195  and  _196
REMARK   77  A    between atoms: _199  and  _201
REMARK   78  A    between atoms: _201  and  _202
REMARK   79  A    between atoms: _205  and  _207
REMARK   80  A    between atoms: _207  and  _208
REMARK   81  A    between atoms: _210  and  _212
REMARK   82  A    between atoms: _212  and  _213
REMARK   83  A    between atoms: _212  and  _215
REMARK   84  A    between atoms: _217  and  _219
REMARK   85  A    between atoms: _219  and  _220
REMARK   86  A    between atoms: _222  and  _224
REMARK   87  A    between atoms: _224  and  _225
REMARK   88  A    between atoms: _224  and  _227
REMARK   89  A    between atoms: _230  and  _232
REMARK   90  A    between atoms: _232  and  _233
REMARK   91  A    between atoms: _235  and  _237
REMARK   92  A    between atoms: _237  and  _238
REMARK   93  A    between atoms: _237  and  _240
REMARK   94  A    between atoms: _240  and  _241
REMARK   95  A    between atoms: _243  and  _245
REMARK   96  A    between atoms: _245  and  _246
REMARK   97  A    between atoms: _245  and  _248
REMARK   98  A    between atoms: _248  and  _249
REMARK   99  A    between atoms: _252  and  _254
REMARK  100  A    between atoms: _254  and  _255
REMARK  101  A    between atoms: _254  and  _257
REMARK  102  A    between atoms: _257  and  _258
REMARK  103  A    between atoms: _260  and  _262
REMARK  104  A    between atoms: _262  and  _263
REMARK  105  A    between atoms: _262  and  _265
REMARK  106  A    between atoms: _265  and  _266
REMARK  107  A    between atoms: _268  and  _270
REMARK  108  A    between atoms: _270  and  _271
REMARK  109  A    between atoms: _270  and  _273
REMARK  110  A    between atoms: _273  and  _274
REMARK  111  A    between atoms: _277  and  _279
REMARK  112  A    between atoms: _279  and  _280
REMARK  113  A    between atoms: _279  and  _282
REMARK  114  A    between atoms: _282  and  _283
REMARK  115  A    between atoms: _286  and  _288
REMARK  116  A    between atoms: _288  and  _289
REMARK  117  A    between atoms: _288  and  _291
REMARK  118  A    between atoms: _291  and  _292
REMARK  119  A    between atoms: _294  and  _296
REMARK  120  A    between atoms: _296  and  _297
REMARK  121  A    between atoms: _296  and  _299
REMARK  122  A    between atoms: _299  and  _300
REMARK  123  A    between atoms: _300  and  _301
REMARK  124  A    between atoms: _304  and  _306
REMARK  125  A    between atoms: _306  and  _307
REMARK  126  A    between atoms: _306  and  _309
REMARK  127  A    between atoms: _309  and  _310
REMARK  128  A    between atoms: _310  and  _311
REMARK  129  A    between atoms: _311  and  _312
REMARK  130  A    between atoms: _312  and  _313
REMARK  131  A    between atoms: _317  and  _319
REMARK  132  A    between atoms: _319  and  _320
REMARK  133  A    between atoms: _319  and  _322
REMARK  134  A    between atoms: _322  and  _323
REMARK  135  A    between atoms: _323  and  _324
REMARK  136  A    between atoms: _326  and  _328
REMARK  137  A    between atoms: _328  and  _329
REMARK  138  A    between atoms: _328  and  _331
REMARK  139  A    between atoms: _334  and  _336
REMARK  140  A    between atoms: _336  and  _337
REMARK  141  A    between atoms: _336  and  _339
REMARK  142  A    between atoms: _339  and  _340
REMARK  143  A    between atoms: _340  and  _341
REMARK  144  A    between atoms: _343  and  _345
REMARK  145  A    between atoms: _345  and  _346
REMARK  146  A    between atoms: _345  and  _348
REMARK  147  A    between atoms: _348  and  _349
REMARK  148  A    between atoms: _352  and  _354
REMARK  149  A    between atoms: _354  and  _355
REMARK  150  A    between atoms: _354  and  _357
REMARK  151  A    between atoms: _357  and  _358
REMARK  152  A    between atoms: _358  and  _359
REMARK  153  A    between atoms: _364  and  _366
REMARK  154  A    between atoms: _366  and  _367
REMARK  155  A    between atoms: _366  and  _369
REMARK  156  A    between atoms: _369  and  _370
REMARK  157  A    between atoms: _373  and  _375
REMARK  158  A    between atoms: _375  and  _376
REMARK  159  A    between atoms: _375  and  _378
REMARK  160  A    between atoms: _378  and  _379
REMARK  161  A    between atoms: _382  and  _384
REMARK  162  A    between atoms: _384  and  _385
REMARK  163  A    between atoms: _388  and  _390
REMARK  164  A    between atoms: _390  and  _391
REMARK  165  A    between atoms: _390  and  _393
REMARK  166  A    between atoms: _393  and  _394
REMARK  167  A    between atoms: _394  and  _395
REMARK  168  A    between atoms: _400  and  _402
REMARK  169  A    between atoms: _402  and  _403
REMARK  170  A    between atoms: _402  and  _405
REMARK  171  A    between atoms: _405  and  _406
REMARK  172  A    between atoms: _409  and  _411
REMARK  173  A    between atoms: _411  and  _412
REMARK  174  A    between atoms: _411  and  _414
REMARK  175  A    between atoms: _414  and  _415
REMARK  176  A    between atoms: _418  and  _420
REMARK  177  A    between atoms: _420  and  _421
REMARK  178  A    between atoms: _420  and  _423
REMARK  179  A    between atoms: _425  and  _427
REMARK  180  A    between atoms: _427  and  _428
REMARK  181  A    between atoms: _427  and  _430
REMARK  182  A    between atoms: _430  and  _431
REMARK  183  A    between atoms: _434  and  _436
REMARK  184  A    between atoms: _436  and  _437
REMARK  185  A    between atoms: _436  and  _439
REMARK  186  A    between atoms: _439  and  _440
REMARK  187  A    between atoms: _443  and  _445
REMARK  188  A    between atoms: _445  and  _446
REMARK  189  A    between atoms: _445  and  _448
REMARK  190  A    between atoms: _451  and  _453
REMARK  191  A    between atoms: _453  and  _454
REMARK  192  A    between atoms: _453  and  _456
REMARK  193  A    between atoms: _456  and  _457
REMARK  194  A    between atoms: _460  and  _462
REMARK  195  A    between atoms: _462  and  _463
REMARK  196  A    between atoms: _462  and  _465
REMARK  197  A    between atoms: _465  and  _466
REMARK  198  A    between atoms: _469  and  _471
REMARK  199  A    between atoms: _471  and  _472
REMARK  200  A    between atoms: _471  and  _474
REMARK  201  A    between atoms: _474  and  _475
REMARK  202  A    between atoms: _480  and  _482
REMARK  203  A    between atoms: _482  and  _483
REMARK  204  A    between atoms: _482  and  _485
REMARK  205  A    between atoms: _485  and  _486
REMARK  206  A    between atoms: _491  and  _492
REMARK  207  A    between atoms: _494  and  _496
REMARK  208  A    between atoms: _496  and  _497
REMARK  209  A    between atoms: _496  and  _499
REMARK  210  A    between atoms: _499  and  _500
REMARK  211  A    between atoms: _500  and  _501
REMARK  212  A    between atoms: _503  and  _505
REMARK  213  A    between atoms: _505  and  _506
REMARK  214  A    between atoms: _505  and  _508
REMARK  215  A    between atoms: _508  and  _509
REMARK  216  A    between atoms: _512  and  _514
REMARK  217  A    between atoms: _514  and  _515
REMARK  218  A    between atoms: _514  and  _517
REMARK  219  A    between atoms: _517  and  _518
REMARK  220  A    between atoms: _520  and  _522
REMARK  221  A    between atoms: _522  and  _523
REMARK  222  A    between atoms: _522  and  _525
REMARK  223  A    between atoms: _525  and  _526
REMARK  224  A    between atoms: _531  and  _532
REMARK  225  A    between atoms: _534  and  _536
REMARK  226  A    between atoms: _536  and  _537
REMARK  227  A    between atoms: _536  and  _539
REMARK  228  A    between atoms: _539  and  _540
REMARK                            x       y       z     vdW  Elec       q    Type
REMARK                         _______ _______ _______ _____ _____    ______ ____
ROOT
ATOM      1  CA  PHE A   2      26.676  12.644   8.943  0.00  0.00    +0.141 C 
ENDROOT
BRANCH   1   4
ATOM      2  C   GLY A   1      24.479  13.593   9.343  0.00  0.00    +0.240 C 
ATOM      3  O   GLY A   1      24.544  13.366  10.551  0.00  0.00    -0.274 OA
ATOM      4  N   PHE A   2      25.439  13.259   8.487  0.00  0.00    -0.298 N 
ATOM      5  H   PHE A   2      25.303  13.441   7.472  0.00  0.00    +0.150 HD
BRANCH   2   6
ATOM      6  CA  GLY A   1      23.264  14.275   8.753  0.00  0.00    +0.169 C 
BRANCH   6   7
ATOM      7  N   GLY A   1      23.589  15.149   7.642  0.00  0.00    -0.236 NA
ATOM      8  H   GLY A   1      23.303  14.877   6.680  0.00  0.00    +0.142 HD
ENDBRANCH   6   7
ENDBRANCH   2   6
ENDBRANCH   1   4
BRANCH   1   9
ATOM      9  C   PHE A   2      27.412  13.560   9.908  0.00  0.00    +0.227 C 
ATOM     10  O   PHE A   2      27.794  13.144  10.999  0.00  0.00    -0.286 OA
ENDBRANCH   1   9
BRANCH   1  11
ATOM     11  CB  PHE A   2      27.584  12.297   7.763  0.00  0.00    +0.054 C 
BRANCH  11  12
ATOM     12  CG  PHE A   2      28.943  11.804   8.174  0.00  0.00    -0.020 A 
ATOM     13  CD2 PHE A   2      29.076  10.636   8.907  0.00  0.00    -0.004 A 
ATOM     14  CE2 PHE A   2      30.322  10.178   9.288  0.00  0.00    -0.000 A 
ATOM     15  CZ  PHE A   2      31.455  10.885   8.935  0.00  0.00    -0.000 A 
ATOM     16  CE1 PHE A   2      31.337  12.050   8.203  0.00  0.00    -0.000 A 
ATOM     17  CD1 PHE A   2      30.086  12.505   7.826  0.00  0.00    -0.004 A 
ENDBRANCH  11  12
ENDBRANCH   1  11
TORSDOF 6
REMARK  Name = ../refined-set-2016/4qdk/4qdk_pocket.pdb
REMARK  228 active torsions:
REMARK  status: ('A' for Active; 'I' for Inactive)
REMARK    1  A    between atoms: _1  and  _3
REMARK    2  A    between atoms: _3  and  _4
REMARK    3  A    between atoms: _3  and  _6
REMARK    4  A    between atoms: _6  and  _7
REMARK    5  A    between atoms: _10  and  _12
REMARK    6  A    between atoms: _12  and  _13
REMARK    7  A    between atoms: _12  and  _15
REMARK    8  A    between atoms: _15  and  _16
REMARK    9  A    between atoms: _16  and  _17
REMARK   10  A    between atoms: _17  and  _18
REMARK   11  A    between atoms: _18  and  _19
REMARK   12  A    between atoms: _23  and  _25
REMARK   13  A    between atoms: _25  and  _26
REMARK   14  A    between atoms: _25  and  _28
REMARK   15  A    between atoms: _28  and  _29
REMARK   16  A    between atoms: _32  and  _34
REMARK   17  A    between atoms: _34  and  _35
REMARK   18  A    between atoms: _34  and  _37
REMARK   19  A    between atoms: _40  and  _42
REMARK   20  A    between atoms: _42  and  _43
REMARK   21  A    between atoms: _42  and  _45
REMARK   22  A    between atoms: _45  and  _46
REMARK   23  A    between atoms: _46  and  _47
REMARK   24  A    between atoms: _47  and  _48
REMARK   25  A    between atoms: _57  and  _59
REMARK   26  A    between atoms: _59  and  _60
REMARK   27  A    between atoms: _59  and  _62
REMARK   28  A    between atoms: _62  and  _63
REMARK   29  A    between atoms: _66  and  _68
REMARK   30  A    between atoms: _68  and  _69
REMARK   31  A    between atoms: _68  and  _71
REMARK   32  A    between atoms: _71  and  _72
REMARK   33  A    between atoms: _77  and  _78
REMARK   34  A    between atoms: _80  and  _82
REMARK   35  A    between atoms: _82  and  _83
REMARK   36  A    between atoms: _82  and  _85
REMARK   37  A    between atoms: _85  and  _86
REMARK   38  A    between atoms: _92  and  _94
REMARK   39  A    between atoms: _94  and  _95
REMARK   40  A    between atoms: _94  and  _97
REMARK   41  A    between atoms: _97  and  _98
REMARK   42  A    between atoms: _103  and  _105
REMARK   43  A    between atoms: _105  and  _106
REMARK   44  A    between atoms: _108  and  _110
REMARK   45  A    between atoms: _110  and  _111
REMARK   46  A    between atoms: _110  and  _113
REMARK   47  A    between atoms: _113  and  _114
REMARK   48  A    between atoms: _120  and  _122
REMARK   49  A    between atoms: _122  and  _123
REMARK   50  A    between atoms: _122  and  _125
REMARK   51  A    between atoms: _125  and  _126
REMARK   52  A    between atoms: _136  and  _138
REMARK   53  A    between atoms: _138  and  _139
REMARK   54  A    between atoms: _138  and  _141
REMARK   55  A    between atoms: _141  and  _142
REMARK   56  A    between atoms: _147  and  _148
REMARK   57  A    between atoms: _150  and  _152
REMARK   58  A    between atoms: _152  and  _153
REMARK   59  A    between atoms: _152  and  _155
REMARK   60  A    between atoms: _155  and  _156
REMARK   61  A    between atoms: _161  and  _163
REMARK   62  A    between atoms: _163  and  _164
REMARK   63  A    between atoms: _163  and  _166
REMARK   64  A    between atoms: _166  and  _167
REMARK   65  A    between atoms: _167  and  _168
REMARK   66  A    between atoms: _173  and  _175
REMARK   67  A    between atoms: _175  and  _176
REMARK   68  A    between atoms: _175  and  _178
REMARK   69  A    between atoms: _178  and  _179
REMARK   70  A    between atoms: _182  and  _184
REMARK   71  A    between atoms: _184  and  _185
REMARK   72  A    between atoms: _184  and  _187
REMARK   73  A    between atoms: _190  and  _192
REMARK   74  A    between atoms: _192  and  _193
REMARK   75  A    between atoms: _192  and  _195
REMARK   76  A    between atoms: _195  and  _196
REMARK   77  A    between atoms: _199  and  _201
REMARK   78  A    between atoms: _201  and  _202
REMARK   79  A    between atoms: _205  and  _207
REMARK   80  A    between atoms: _207  and  _208
REMARK   81  A    between atoms: _210  and  _212
REMARK   82  A    between atoms: _212  and  _213
REMARK   83  A    between atoms: _212  and  _215
REMARK   84  A    between atoms: _217  and  _219
REMARK   85  A    between atoms: _219  and  _220
REMARK   86  A    between atoms: _222  and  _224
REMARK   87  A    between atoms: _224  and  _225
REMARK   88  A    between atoms: _224  and  _227
REMARK   89  A    between atoms: _230  and  _232
REMARK   90  A    between atoms: _232  and  _233
REMARK   91  A    between atoms: _235  and  _237
REMARK   92  A    between atoms: _237  and  _238
REMARK   93  A    between atoms: _237  and  _240
REMARK   94  A    between atoms: _240  and  _241
REMARK   95  A    between atoms: _243  and  _245
REMARK   96  A    between atoms: _245  and  _246
REMARK   97  A    between atoms: _245  and  _248
REMARK   98  A    between atoms: _248  and  _249
REMARK   99  A    between atoms: _252  and  _254
REMARK  100  A    between atoms: _254  and  _255
REMARK  101  A    between atoms: _254  and  _257
REMARK  102  A    between atoms: _257  and  _258
REMARK  103  A    between atoms: _260  and  _262
REMARK  104  A    between atoms: _262  and  _263
REMARK  105  A    between atoms: _262  and  _265
REMARK  106  A    between atoms: _265  and  _266
REMARK  107  A    between atoms: _268  and  _270
REMARK  108  A    between atoms: _270  and  _271
REMARK  109  A    between atoms: _270  and  _273
REMARK  110  A    between atoms: _273  and  _274
REMARK  111  A    between atoms: _277  and  _279
REMARK  112  A    between atoms: _279  and  _280
REMARK  113  A    between atoms: _279  and  _282
REMARK  114  A    between atoms: _282  and  _283
REMARK  115  A    between atoms: _286  and  _288
REMARK  116  A    between atoms: _288  and  _289
REMARK  117  A    between atoms: _288  and  _291
REMARK  118  A    between atoms: _291  and  _292
REMARK  119  A    between atoms: _294  and  _296
REMARK  120  A    between atoms: _296  and  _297
REMARK  121  A    between atoms: _296  and  _299
REMARK  122  A    between atoms: _299  and  _300
REMARK  123  A    between atoms: _300  and  _301
REMARK  124  A    between atoms: _304  and  _306
REMARK  125  A    between atoms: _306  and  _307
REMARK  126  A    between atoms: _306  and  _309
REMARK  127  A    between atoms: _309  and  _310
REMARK  128  A    between atoms: _310  and  _311
REMARK  129  A    between atoms: _311  and  _312
REMARK  130  A    between atoms: _312  and  _313
REMARK  131  A    between atoms: _317  and  _319
REMARK  132  A    between atoms: _319  and  _320
REMARK  133  A    between atoms: _319  and  _322
REMARK  134  A    between atoms: _322  and  _323
REMARK  135  A    between atoms: _323  and  _324
REMARK  136  A    between atoms: _326  and  _328
REMARK  137  A    between atoms: _328  and  _329
REMARK  138  A    between atoms: _328  and  _331
REMARK  139  A    between atoms: _334  and  _336
REMARK  140  A    between atoms: _336  and  _337
REMARK  141  A    between atoms: _336  and  _339
REMARK  142  A    between atoms: _339  and  _340
REMARK  143  A    between atoms: _340  and  _341
REMARK  144  A    between atoms: _343  and  _345
REMARK  145  A    between atoms: _345  and  _346
REMARK  146  A    between atoms: _345  and  _348
REMARK  147  A    between atoms: _348  and  _349
REMARK  148  A    between atoms: _352  and  _354
REMARK  149  A    between atoms: _354  and  _355
REMARK  150  A    between atoms: _354  and  _357
REMARK  151  A    between atoms: _357  and  _358
REMARK  152  A    between atoms: _358  and  _359
REMARK  153  A    between atoms: _364  and  _366
REMARK  154  A    between atoms: _366  and  _367
REMARK  155  A    between atoms: _366  and  _369
REMARK  156  A    between atoms: _369  and  _370
REMARK  157  A    between atoms: _373  and  _375
REMARK  158  A    between atoms: _375  and  _376
REMARK  159  A    between atoms: _375  and  _378
REMARK  160  A    between atoms: _378  and  _379
REMARK  161  A    between atoms: _382  and  _384
REMARK  162  A    between atoms: _384  and  _385
REMARK  163  A    between atoms: _388  and  _390
REMARK  164  A    between atoms: _390  and  _391
REMARK  165  A    between atoms: _390  and  _393
REMARK  166  A    between atoms: _393  and  _394
REMARK  167  A    between atoms: _394  and  _395
REMARK  168  A    between atoms: _400  and  _402
REMARK  169  A    between atoms: _402  and  _403
REMARK  170  A    between atoms: _402  and  _405
REMARK  171  A    between atoms: _405  and  _406
REMARK  172  A    between atoms: _409  and  _411
REMARK  173  A    between atoms: _411  and  _412
REMARK  174  A    between atoms: _411  and  _414
REMARK  175  A    between atoms: _414  and  _415
REMARK  176  A    between atoms: _418  and  _420
REMARK  177  A    between atoms: _420  and  _421
REMARK  178  A    between atoms: _420  and  _423
REMARK  179  A    between atoms: _425  and  _427
REMARK  180  A    between atoms: _427  and  _428
REMARK  181  A    between atoms: _427  and  _430
REMARK  182  A    between atoms: _430  and  _431
REMARK  183  A    between atoms: _434  and  _436
REMARK  184  A    between atoms: _436  and  _437
REMARK  185  A    between atoms: _436  and  _439
REMARK  186  A    between atoms: _439  and  _440
REMARK  187  A    between atoms: _443  and  _445
REMARK  188  A    between atoms: _445  and  _446
REMARK  189  A    between atoms: _445  and  _448
REMARK  190  A    between atoms: _451  and  _453
REMARK  191  A    between atoms: _453  and  _454
REMARK  192  A    between atoms: _453  and  _456
REMARK  193  A    between atoms: _456  and  _457
REMARK  194  A    between atoms: _460  and  _462
REMARK  195  A    between atoms: _462  and  _463
REMARK  196  A    between atoms: _462  and  _465
REMARK  197  A    between atoms: _465  and  _466
REMARK  198  A    between atoms: _469  and  _471
REMARK  199  A    between atoms: _471  and  _472
REMARK  200  A    between atoms: _471  and  _474
REMARK  201  A    between atoms: _474  and  _475
REMARK  202  A    between atoms: _480  and  _482
REMARK  203  A    between atoms: _482  and  _483
REMARK  204  A    between atoms: _482  and  _485
REMARK  205  A    between atoms: _485  and  _486
REMARK  206  A    between atoms: _491  and  _492
REMARK  207  A    between atoms: _494  and  _496
REMARK  208  A    between atoms: _496  and  _497
REMARK  209  A    between atoms: _496  and  _499
REMARK  210  A    between atoms: _499  and  _500
REMARK  211  A    between atoms: _500  and  _501
REMARK  212  A    between atoms: _503  and  _505
REMARK  213  A    between atoms: _505  and  _506
REMARK  214  A    between atoms: _505  and  _508
REMARK  215  A    between atoms: _508  and  _509
REMARK  216  A    between atoms: _512  and  _514
REMARK  217  A    between atoms: _514  and  _515
REMARK  218  A    between atoms: _514  and  _517
REMARK  219  A    between atoms: _517  and  _518
REMARK  220  A    between atoms: _520  and  _522
REMARK  221  A    between atoms: _522  and  _523
REMARK  222  A    between atoms: _522  and  _525
REMARK  223  A    between atoms: _525  and  _526
REMARK  224  A    between atoms: _531  and  _532
REMARK  225  A    between atoms: _534  and  _536
REMARK  226  A    between atoms: _536  and  _537
REMARK  227  A    between atoms: _536  and  _539
REMARK  228  A    between atoms: _539  and  _540
REMARK                            x       y       z     vdW  Elec       q    Type
REMARK                         _______ _______ _______ _____ _____    ______ ____
ROOT
ATOM      1  CG  TRP A   1      22.698  12.436  13.657  0.00  0.00    -0.002 A 
ATOM      2  CD2 TRP A   1      21.887  12.316  14.832  0.00  0.00    +0.013 A 
ATOM      3  CE3 TRP A   1      22.124  11.850  16.130  0.00  0.00    +0.001 A 
ATOM      4  CZ3 TRP A   1      21.084  11.869  17.041  0.00  0.00    +0.000 A 
ATOM      5  CH2 TRP A   1      19.817  12.346  16.683  0.00  0.00    +0.001 A 
ATOM      6  CZ2 TRP A   1      19.557  12.810  15.423  0.00  0.00    +0.017 A 
ATOM      7  CE2 TRP A   1      20.601  12.789  14.503  0.00  0.00    +0.056 A 
ATOM      8  NE1 TRP A   1      20.630  13.185  13.191  0.00  0.00    -0.352 N 
ATOM      9  HE1 TRP A   1      19.828  13.580  12.661  0.00  0.00    +0.166 HD
ATOM     10  CD1 TRP A   1      21.893  12.974  12.691  0.00  0.00    +0.068 A 
ENDROOT
BRANCH   1  11
ATOM     11  CB  TRP A   1      24.147  12.068  13.528  0.00  0.00    +0.053 C 
BRANCH  11  12
ATOM     12  CA  TRP A   1      25.068  13.115  14.162  0.00  0.00    +0.137 C 
BRANCH  12  13
ATOM     13  N   TRP A   1      25.234  14.269  13.282  0.00  0.00    -0.239 NA
ATOM     14  H   TRP A   1      25.160  14.145  12.252  0.00  0.00    +0.142 HD
ENDBRANCH  12  13
BRANCH  12  15
ATOM     15  C   TRP A   1      26.384  12.498  14.641  0.00  0.00    +0.224 C 
ATOM     16  O   TRP A   1      26.433  11.914  15.723  0.00  0.00    -0.287 OA
ENDBRANCH  12  15
ENDBRANCH  11  12
ENDBRANCH   1  11
TORSDOF 4
REMARK  Name = ../refined-set-2016/4qdk/4qdk_pocket.pdb
REMARK  228 active torsions:
REMARK  status: ('A' for Active; 'I' for Inactive)
REMARK    1  A    between atoms: _1  and  _3
REMARK    2  A    between atoms: _3  and  _4
REMARK    3  A    between atoms: _3  and  _6
REMARK    4  A    between atoms: _6  and  _7
REMARK    5  A    between atoms: _10  and  _12
REMARK    6  A    between atoms: _12  and  _13
REMARK    7  A    between atoms: _12  and  _15
REMARK    8  A    between atoms: _15  and  _16
REMARK    9  A    between atoms: _16  and  _17
REMARK   10  A    between atoms: _17  and  _18
REMARK   11  A    between atoms: _18  and  _19
REMARK   12  A    between atoms: _23  and  _25
REMARK   13  A    between atoms: _25  and  _26
REMARK   14  A    between atoms: _25  and  _28
REMARK   15  A    between atoms: _28  and  _29
REMARK   16  A    between atoms: _32  and  _34
REMARK   17  A    between atoms: _34  and  _35
REMARK   18  A    between atoms: _34  and  _37
REMARK   19  A    between atoms: _40  and  _42
REMARK   20  A    between atoms: _42  and  _43
REMARK   21  A    between atoms: _42  and  _45
REMARK   22  A    between atoms: _45  and  _46
REMARK   23  A    between atoms: _46  and  _47
REMARK   24  A    between atoms: _47  and  _48
REMARK   25  A    between atoms: _57  and  _59
REMARK   26  A    between atoms: _59  and  _60
REMARK   27  A    between atoms: _59  and  _62
REMARK   28  A    between atoms: _62  and  _63
REMARK   29  A    between atoms: _66  and  _68
REMARK   30  A    between atoms: _68  and  _69
REMARK   31  A    between atoms: _68  and  _71
REMARK   32  A    between atoms: _71  and  _72
REMARK   33  A    between atoms: _77  and  _78
REMARK   34  A    between atoms: _80  and  _82
REMARK   35  A    between atoms: _82  and  _83
REMARK   36  A    between atoms: _82  and  _85
REMARK   37  A    between atoms: _85  and  _86
REMARK   38  A    between atoms: _92  and  _94
REMARK   39  A    between atoms: _94  and  _95
REMARK   40  A    between atoms: _94  and  _97
REMARK   41  A    between atoms: _97  and  _98
REMARK   42  A    between atoms: _103  and  _105
REMARK   43  A    between atoms: _105  and  _106
REMARK   44  A    between atoms: _108  and  _110
REMARK   45  A    between atoms: _110  and  _111
REMARK   46  A    between atoms: _110  and  _113
REMARK   47  A    between atoms: _113  and  _114
REMARK   48  A    between atoms: _120  and  _122
REMARK   49  A    between atoms: _122  and  _123
REMARK   50  A    between atoms: _122  and  _125
REMARK   51  A    between atoms: _125  and  _126
REMARK   52  A    between atoms: _136  and  _138
REMARK   53  A    between atoms: _138  and  _139
REMARK   54  A    between atoms: _138  and  _141
REMARK   55  A    between atoms: _141  and  _142
REMARK   56  A    between atoms: _147  and  _148
REMARK   57  A    between atoms: _150  and  _152
REMARK   58  A    between atoms: _152  and  _153
REMARK   59  A    between atoms: _152  and  _155
REMARK   60  A    between atoms: _155  and  _156
REMARK   61  A    between atoms: _161  and  _163
REMARK   62  A    between atoms: _163  and  _164
REMARK   63  A    between atoms: _163  and  _166
REMARK   64  A    between atoms: _166  and  _167
REMARK   65  A    between atoms: _167  and  _168
REMARK   66  A    between atoms: _173  and  _175
REMARK   67  A    between atoms: _175  and  _176
REMARK   68  A    between atoms: _175  and  _178
REMARK   69  A    between atoms: _178  and  _179
REMARK   70  A    between atoms: _182  and  _184
REMARK   71  A    between atoms: _184  and  _185
REMARK   72  A    between atoms: _184  and  _187
REMARK   73  A    between atoms: _190  and  _192
REMARK   74  A    between atoms: _192  and  _193
REMARK   75  A    between atoms: _192  and  _195
REMARK   76  A    between atoms: _195  and  _196
REMARK   77  A    between atoms: _199  and  _201
REMARK   78  A    between atoms: _201  and  _202
REMARK   79  A    between atoms: _205  and  _207
REMARK   80  A    between atoms: _207  and  _208
REMARK   81  A    between atoms: _210  and  _212
REMARK   82  A    between atoms: _212  and  _213
REMARK   83  A    between atoms: _212  and  _215
REMARK   84  A    between atoms: _217  and  _219
REMARK   85  A    between atoms: _219  and  _220
REMARK   86  A    between atoms: _222  and  _224
REMARK   87  A    between atoms: _224  and  _225
REMARK   88  A    between atoms: _224  and  _227
REMARK   89  A    between atoms: _230  and  _232
REMARK   90  A    between atoms: _232  and  _233
REMARK   91  A    between atoms: _235  and  _237
REMARK   92  A    between atoms: _237  and  _238
REMARK   93  A    between atoms: _237  and  _240
REMARK   94  A    between atoms: _240  and  _241
REMARK   95  A    between atoms: _243  and  _245
REMARK   96  A    between atoms: _245  and  _246
REMARK   97  A    between atoms: _245  and  _248
REMARK   98  A    between atoms: _248  and  _249
REMARK   99  A    between atoms: _252  and  _254
REMARK  100  A    between atoms: _254  and  _255
REMARK  101  A    between atoms: _254  and  _257
REMARK  102  A    between atoms: _257  and  _258
REMARK  103  A    between atoms: _260  and  _262
REMARK  104  A    between atoms: _262  and  _263
REMARK  105  A    between atoms: _262  and  _265
REMARK  106  A    between atoms: _265  and  _266
REMARK  107  A    between atoms: _268  and  _270
REMARK  108  A    between atoms: _270  and  _271
REMARK  109  A    between atoms: _270  and  _273
REMARK  110  A    between atoms: _273  and  _274
REMARK  111  A    between atoms: _277  and  _279
REMARK  112  A    between atoms: _279  and  _280
REMARK  113  A    between atoms: _279  and  _282
REMARK  114  A    between atoms: _282  and  _283
REMARK  115  A    between atoms: _286  and  _288
REMARK  116  A    between atoms: _288  and  _289
REMARK  117  A    between atoms: _288  and  _291
REMARK  118  A    between atoms: _291  and  _292
REMARK  119  A    between atoms: _294  and  _296
REMARK  120  A    between atoms: _296  and  _297
REMARK  121  A    between atoms: _296  and  _299
REMARK  122  A    between atoms: _299  and  _300
REMARK  123  A    between atoms: _300  and  _301
REMARK  124  A    between atoms: _304  and  _306
REMARK  125  A    between atoms: _306  and  _307
REMARK  126  A    between atoms: _306  and  _309
REMARK  127  A    between atoms: _309  and  _310
REMARK  128  A    between atoms: _310  and  _311
REMARK  129  A    between atoms: _311  and  _312
REMARK  130  A    between atoms: _312  and  _313
REMARK  131  A    between atoms: _317  and  _319
REMARK  132  A    between atoms: _319  and  _320
REMARK  133  A    between atoms: _319  and  _322
REMARK  134  A    between atoms: _322  and  _323
REMARK  135  A    between atoms: _323  and  _324
REMARK  136  A    between atoms: _326  and  _328
REMARK  137  A    between atoms: _328  and  _329
REMARK  138  A    between atoms: _328  and  _331
REMARK  139  A    between atoms: _334  and  _336
REMARK  140  A    between atoms: _336  and  _337
REMARK  141  A    between atoms: _336  and  _339
REMARK  142  A    between atoms: _339  and  _340
REMARK  143  A    between atoms: _340  and  _341
REMARK  144  A    between atoms: _343  and  _345
REMARK  145  A    between atoms: _345  and  _346
REMARK  146  A    between atoms: _345  and  _348
REMARK  147  A    between atoms: _348  and  _349
REMARK  148  A    between atoms: _352  and  _354
REMARK  149  A    between atoms: _354  and  _355
REMARK  150  A    between atoms: _354  and  _357
REMARK  151  A    between atoms: _357  and  _358
REMARK  152  A    between atoms: _358  and  _359
REMARK  153  A    between atoms: _364  and  _366
REMARK  154  A    between atoms: _366  and  _367
REMARK  155  A    between atoms: _366  and  _369
REMARK  156  A    between atoms: _369  and  _370
REMARK  157  A    between atoms: _373  and  _375
REMARK  158  A    between atoms: _375  and  _376
REMARK  159  A    between atoms: _375  and  _378
REMARK  160  A    between atoms: _378  and  _379
REMARK  161  A    between atoms: _382  and  _384
REMARK  162  A    between atoms: _384  and  _385
REMARK  163  A    between atoms: _388  and  _390
REMARK  164  A    between atoms: _390  and  _391
REMARK  165  A    between atoms: _390  and  _393
REMARK  166  A    between atoms: _393  and  _394
REMARK  167  A    between atoms: _394  and  _395
REMARK  168  A    between atoms: _400  and  _402
REMARK  169  A    between atoms: _402  and  _403
REMARK  170  A    between atoms: _402  and  _405
REMARK  171  A    between atoms: _405  and  _406
REMARK  172  A    between atoms: _409  and  _411
REMARK  173  A    between atoms: _411  and  _412
REMARK  174  A    between atoms: _411  and  _414
REMARK  175  A    between atoms: _414  and  _415
REMARK  176  A    between atoms: _418  and  _420
REMARK  177  A    between atoms: _420  and  _421
REMARK  178  A    between atoms: _420  and  _423
REMARK  179  A    between atoms: _425  and  _427
REMARK  180  A    between atoms: _427  and  _428
REMARK  181  A    between atoms: _427  and  _430
REMARK  182  A    between atoms: _430  and  _431
REMARK  183  A    between atoms: _434  and  _436
REMARK  184  A    between atoms: _436  and  _437
REMARK  185  A    between atoms: _436  and  _439
REMARK  186  A    between atoms: _439  and  _440
REMARK  187  A    between atoms: _443  and  _445
REMARK  188  A    between atoms: _445  and  _446
REMARK  189  A    between atoms: _445  and  _448
REMARK  190  A    between atoms: _451  and  _453
REMARK  191  A    between atoms: _453  and  _454
REMARK  192  A    between atoms: _453  and  _456
REMARK  193  A    between atoms: _456  and  _457
REMARK  194  A    between atoms: _460  and  _462
REMARK  195  A    between atoms: _462  and  _463
REMARK  196  A    between atoms: _462  and  _465
REMARK  197  A    between atoms: _465  and  _466
REMARK  198  A    between atoms: _469  and  _471
REMARK  199  A    between atoms: _471  and  _472
REMARK  200  A    between atoms: _471  and  _474
REMARK  201  A    between atoms: _474  and  _475
REMARK  202  A    between atoms: _480  and  _482
REMARK  203  A    between atoms: _482  and  _483
REMARK  204  A    between atoms: _482  and  _485
REMARK  205  A    between atoms: _485  and  _486
REMARK  206  A    between atoms: _491  and  _492
REMARK  207  A    between atoms: _494  and  _496
REMARK  208  A    between atoms: _496  and  _497
REMARK  209  A    between atoms: _496  and  _499
REMARK  210  A    between atoms: _499  and  _500
REMARK  211  A    between atoms: _500  and  _501
REMARK  212  A    between atoms: _503  and  _505
REMARK  213  A    between atoms: _505  and  _506
REMARK  214  A    between atoms: _505  and  _508
REMARK  215  A    between atoms: _508  and  _509
REMARK  216  A    between atoms: _512  and  _514
REMARK  217  A    between atoms: _514  and  _515
REMARK  218  A    between atoms: _514  and  _517
REMARK  219  A    between atoms: _517  and  _518
REMARK  220  A    between atoms: _520  and  _522
REMARK  221  A    between atoms: _522  and  _523
REMARK  222  A    between atoms: _522  and  _525
REMARK  223  A    between atoms: _525  and  _526
REMARK  224  A    between atoms: _531  and  _532
REMARK  225  A    between atoms: _534  and  _536
REMARK  226  A    between atoms: _536  and  _537
REMARK  227  A    between atoms: _536  and  _539
REMARK  228  A    between atoms: _539  and  _540
REMARK                            x       y       z     vdW  Elec       q    Type
REMARK                         _______ _______ _______ _____ _____    ______ ____
ROOT
ATOM      1  CG  TYR A   1      25.619   9.191  17.505  0.00  0.00    -0.020 A 
ATOM      2  CD2 TYR A   1      24.635   9.376  18.469  0.00  0.00    -0.001 A 
ATOM      3  CE2 TYR A   1      23.297   9.137  18.184  0.00  0.00    +0.036 A 
ATOM      4  CZ  TYR A   1      22.935   8.706  16.923  0.00  0.00    +0.134 A 
ATOM      5  CE1 TYR A   1      23.895   8.515  15.950  0.00  0.00    +0.036 A 
ATOM      6  CD1 TYR A   1      25.227   8.756  16.245  0.00  0.00    -0.001 A 
ENDROOT
BRANCH   4   7
ATOM      7  OH  TYR A   1      21.613   8.464  16.627  0.00  0.00    -0.506 OA
ATOM      8  HH  TYR A   1      21.058   8.647  17.426  0.00  0.00    +0.292 HD
ENDBRANCH   4   7
BRANCH   1   9
ATOM      9  CB  TYR A   1      27.081   9.446  17.815  0.00  0.00    +0.051 C 
BRANCH   9  10
ATOM     10  CA  TYR A   1      27.335  10.475  18.922  0.00  0.00    +0.137 C 
BRANCH  10  11
ATOM     11  N   TYR A   1      26.918  11.804  18.490  0.00  0.00    -0.239 NA
ATOM     12  H   TYR A   1      26.808  11.994  17.474  0.00  0.00    +0.142 HD
ENDBRANCH  10  11
BRANCH  10  13
ATOM     13  C   TYR A   1      28.808  10.445  19.334  0.00  0.00    +0.224 C 
ATOM     14  O   TYR A   1      29.294   9.440  19.853  0.00  0.00    -0.287 OA
ENDBRANCH  10  13
ENDBRANCH   9  10
ENDBRANCH   1   9
TORSDOF 5
REMARK  Name = ../refined-set-2016/4qdk/4qdk_pocket.pdb
REMARK  228 active torsions:
REMARK  status: ('A' for Active; 'I' for Inactive)
REMARK    1  A    between atoms: _1  and  _3
REMARK    2  A    between atoms: _3  and  _4
REMARK    3  A    between atoms: _3  and  _6
REMARK    4  A    between atoms: _6  and  _7
REMARK    5  A    between atoms: _10  and  _12
REMARK    6  A    between atoms: _12  and  _13
REMARK    7  A    between atoms: _12  and  _15
REMARK    8  A    between atoms: _15  and  _16
REMARK    9  A    between atoms: _16  and  _17
REMARK   10  A    between atoms: _17  and  _18
REMARK   11  A    between atoms: _18  and  _19
REMARK   12  A    between atoms: _23  and  _25
REMARK   13  A    between atoms: _25  and  _26
REMARK   14  A    between atoms: _25  and  _28
REMARK   15  A    between atoms: _28  and  _29
REMARK   16  A    between atoms: _32  and  _34
REMARK   17  A    between atoms: _34  and  _35
REMARK   18  A    between atoms: _34  and  _37
REMARK   19  A    between atoms: _40  and  _42
REMARK   20  A    between atoms: _42  and  _43
REMARK   21  A    between atoms: _42  and  _45
REMARK   22  A    between atoms: _45  and  _46
REMARK   23  A    between atoms: _46  and  _47
REMARK   24  A    between atoms: _47  and  _48
REMARK   25  A    between atoms: _57  and  _59
REMARK   26  A    between atoms: _59  and  _60
REMARK   27  A    between atoms: _59  and  _62
REMARK   28  A    between atoms: _62  and  _63
REMARK   29  A    between atoms: _66  and  _68
REMARK   30  A    between atoms: _68  and  _69
REMARK   31  A    between atoms: _68  and  _71
REMARK   32  A    between atoms: _71  and  _72
REMARK   33  A    between atoms: _77  and  _78
REMARK   34  A    between atoms: _80  and  _82
REMARK   35  A    between atoms: _82  and  _83
REMARK   36  A    between atoms: _82  and  _85
REMARK   37  A    between atoms: _85  and  _86
REMARK   38  A    between atoms: _92  and  _94
REMARK   39  A    between atoms: _94  and  _95
REMARK   40  A    between atoms: _94  and  _97
REMARK   41  A    between atoms: _97  and  _98
REMARK   42  A    between atoms: _103  and  _105
REMARK   43  A    between atoms: _105  and  _106
REMARK   44  A    between atoms: _108  and  _110
REMARK   45  A    between atoms: _110  and  _111
REMARK   46  A    between atoms: _110  and  _113
REMARK   47  A    between atoms: _113  and  _114
REMARK   48  A    between atoms: _120  and  _122
REMARK   49  A    between atoms: _122  and  _123
REMARK   50  A    between atoms: _122  and  _125
REMARK   51  A    between atoms: _125  and  _126
REMARK   52  A    between atoms: _136  and  _138
REMARK   53  A    between atoms: _138  and  _139
REMARK   54  A    between atoms: _138  and  _141
REMARK   55  A    between atoms: _141  and  _142
REMARK   56  A    between atoms: _147  and  _148
REMARK   57  A    between atoms: _150  and  _152
REMARK   58  A    between atoms: _152  and  _153
REMARK   59  A    between atoms: _152  and  _155
REMARK   60  A    between atoms: _155  and  _156
REMARK   61  A    between atoms: _161  and  _163
REMARK   62  A    between atoms: _163  and  _164
REMARK   63  A    between atoms: _163  and  _166
REMARK   64  A    between atoms: _166  and  _167
REMARK   65  A    between atoms: _167  and  _168
REMARK   66  A    between atoms: _173  and  _175
REMARK   67  A    between atoms: _175  and  _176
REMARK   68  A    between atoms: _175  and  _178
REMARK   69  A    between atoms: _178  and  _179
REMARK   70  A    between atoms: _182  and  _184
REMARK   71  A    between atoms: _184  and  _185
REMARK   72  A    between atoms: _184  and  _187
REMARK   73  A    between atoms: _190  and  _192
REMARK   74  A    between atoms: _192  and  _193
REMARK   75  A    between atoms: _192  and  _195
REMARK   76  A    between atoms: _195  and  _196
REMARK   77  A    between atoms: _199  and  _201
REMARK   78  A    between atoms: _201  and  _202
REMARK   79  A    between atoms: _205  and  _207
REMARK   80  A    between atoms: _207  and  _208
REMARK   81  A    between atoms: _210  and  _212
REMARK   82  A    between atoms: _212  and  _213
REMARK   83  A    between atoms: _212  and  _215
REMARK   84  A    between atoms: _217  and  _219
REMARK   85  A    between atoms: _219  and  _220
REMARK   86  A    between atoms: _222  and  _224
REMARK   87  A    between atoms: _224  and  _225
REMARK   88  A    between atoms: _224  and  _227
REMARK   89  A    between atoms: _230  and  _232
REMARK   90  A    between atoms: _232  and  _233
REMARK   91  A    between atoms: _235  and  _237
REMARK   92  A    between atoms: _237  and  _238
REMARK   93  A    between atoms: _237  and  _240
REMARK   94  A    between atoms: _240  and  _241
REMARK   95  A    between atoms: _243  and  _245
REMARK   96  A    between atoms: _245  and  _246
REMARK   97  A    between atoms: _245  and  _248
REMARK   98  A    between atoms: _248  and  _249
REMARK   99  A    between atoms: _252  and  _254
REMARK  100  A    between atoms: _254  and  _255
REMARK  101  A    between atoms: _254  and  _257
REMARK  102  A    between atoms: _257  and  _258
REMARK  103  A    between atoms: _260  and  _262
REMARK  104  A    between atoms: _262  and  _263
REMARK  105  A    between atoms: _262  and  _265
REMARK  106  A    between atoms: _265  and  _266
REMARK  107  A    between atoms: _268  and  _270
REMARK  108  A    between atoms: _270  and  _271
REMARK  109  A    between atoms: _270  and  _273
REMARK  110  A    between atoms: _273  and  _274
REMARK  111  A    between atoms: _277  and  _279
REMARK  112  A    between atoms: _279  and  _280
REMARK  113  A    between atoms: _279  and  _282
REMARK  114  A    between atoms: _282  and  _283
REMARK  115  A    between atoms: _286  and  _288
REMARK  116  A    between atoms: _288  and  _289
REMARK  117  A    between atoms: _288  and  _291
REMARK  118  A    between atoms: _291  and  _292
REMARK  119  A    between atoms: _294  and  _296
REMARK  120  A    between atoms: _296  and  _297
REMARK  121  A    between atoms: _296  and  _299
REMARK  122  A    between atoms: _299  and  _300
REMARK  123  A    between atoms: _300  and  _301
REMARK  124  A    between atoms: _304  and  _306
REMARK  125  A    between atoms: _306  and  _307
REMARK  126  A    between atoms: _306  and  _309
REMARK  127  A    between atoms: _309  and  _310
REMARK  128  A    between atoms: _310  and  _311
REMARK  129  A    between atoms: _311  and  _312
REMARK  130  A    between atoms: _312  and  _313
REMARK  131  A    between atoms: _317  and  _319
REMARK  132  A    between atoms: _319  and  _320
REMARK  133  A    between atoms: _319  and  _322
REMARK  134  A    between atoms: _322  and  _323
REMARK  135  A    between atoms: _323  and  _324
REMARK  136  A    between atoms: _326  and  _328
REMARK  137  A    between atoms: _328  and  _329
REMARK  138  A    between atoms: _328  and  _331
REMARK  139  A    between atoms: _334  and  _336
REMARK  140  A    between atoms: _336  and  _337
REMARK  141  A    between atoms: _336  and  _339
REMARK  142  A    between atoms: _339  and  _340
REMARK  143  A    between atoms: _340  and  _341
REMARK  144  A    between atoms: _343  and  _345
REMARK  145  A    between atoms: _345  and  _346
REMARK  146  A    between atoms: _345  and  _348
REMARK  147  A    between atoms: _348  and  _349
REMARK  148  A    between atoms: _352  and  _354
REMARK  149  A    between atoms: _354  and  _355
REMARK  150  A    between atoms: _354  and  _357
REMARK  151  A    between atoms: _357  and  _358
REMARK  152  A    between atoms: _358  and  _359
REMARK  153  A    between atoms: _364  and  _366
REMARK  154  A    between atoms: _366  and  _367
REMARK  155  A    between atoms: _366  and  _369
REMARK  156  A    between atoms: _369  and  _370
REMARK  157  A    between atoms: _373  and  _375
REMARK  158  A    between atoms: _375  and  _376
REMARK  159  A    between atoms: _375  and  _378
REMARK  160  A    between atoms: _378  and  _379
REMARK  161  A    between atoms: _382  and  _384
REMARK  162  A    between atoms: _384  and  _385
REMARK  163  A    between atoms: _388  and  _390
REMARK  164  A    between atoms: _390  and  _391
REMARK  165  A    between atoms: _390  and  _393
REMARK  166  A    between atoms: _393  and  _394
REMARK  167  A    between atoms: _394  and  _395
REMARK  168  A    between atoms: _400  and  _402
REMARK  169  A    between atoms: _402  and  _403
REMARK  170  A    between atoms: _402  and  _405
REMARK  171  A    between atoms: _405  and  _406
REMARK  172  A    between atoms: _409  and  _411
REMARK  173  A    between atoms: _411  and  _412
REMARK  174  A    between atoms: _411  and  _414
REMARK  175  A    between atoms: _414  and  _415
REMARK  176  A    between atoms: _418  and  _420
REMARK  177  A    between atoms: _420  and  _421
REMARK  178  A    between atoms: _420  and  _423
REMARK  179  A    between atoms: _425  and  _427
REMARK  180  A    between atoms: _427  and  _428
REMARK  181  A    between atoms: _427  and  _430
REMARK  182  A    between atoms: _430  and  _431
REMARK  183  A    between atoms: _434  and  _436
REMARK  184  A    between atoms: _436  and  _437
REMARK  185  A    between atoms: _436  and  _439
REMARK  186  A    between atoms: _439  and  _440
REMARK  187  A    between atoms: _443  and  _445
REMARK  188  A    between atoms: _445  and  _446
REMARK  189  A    between atoms: _445  and  _448
REMARK  190  A    between atoms: _451  and  _453
REMARK  191  A    between atoms: _453  and  _454
REMARK  192  A    between atoms: _453  and  _456
REMARK  193  A    between atoms: _456  and  _457
REMARK  194  A    between atoms: _460  and  _462
REMARK  195  A    between atoms: _462  and  _463
REMARK  196  A    between atoms: _462  and  _465
REMARK  197  A    between atoms: _465  and  _466
REMARK  198  A    between atoms: _469  and  _471
REMARK  199  A    between atoms: _471  and  _472
REMARK  200  A    between atoms: _471  and  _474
REMARK  201  A    between atoms: _474  and  _475
REMARK  202  A    between atoms: _480  and  _482
REMARK  203  A    between atoms: _482  and  _483
REMARK  204  A    between atoms: _482  and  _485
REMARK  205  A    between atoms: _485  and  _486
REMARK  206  A    between atoms: _491  and  _492
REMARK  207  A    between atoms: _494  and  _496
REMARK  208  A    between atoms: _496  and  _497
REMARK  209  A    between atoms: _496  and  _499
REMARK  210  A    between atoms: _499  and  _500
REMARK  211  A    between atoms: _500  and  _501
REMARK  212  A    between atoms: _503  and  _505
REMARK  213  A    between atoms: _505  and  _506
REMARK  214  A    between atoms: _505  and  _508
REMARK  215  A    between atoms: _508  and  _509
REMARK  216  A    between atoms: _512  and  _514
REMARK  217  A    between atoms: _514  and  _515
REMARK  218  A    between atoms: _514  and  _517
REMARK  219  A    between atoms: _517  and  _518
REMARK  220  A    between atoms: _520  and  _522
REMARK  221  A    between atoms: _522  and  _523
REMARK  222  A    between atoms: _522  and  _525
REMARK  223  A    between atoms: _525  and  _526
REMARK  224  A    between atoms: _531  and  _532
REMARK  225  A    between atoms: _534  and  _536
REMARK  226  A    between atoms: _536  and  _537
REMARK  227  A    between atoms: _536  and  _539
REMARK  228  A    between atoms: _539  and  _540
REMARK                            x       y       z     vdW  Elec       q    Type
REMARK                         _______ _______ _______ _____ _____    ______ ____
ROOT
ATOM      1  C   HIS A   1      21.926   7.228  23.919  0.00  0.00    +0.239 C 
ATOM      2  N   GLN A   2      22.818   7.824  24.704  0.00  0.00    -0.298 N 
ATOM      3  H   GLN A   2      22.848   8.863  24.747  0.00  0.00    +0.150 HD
ATOM      4  O   HIS A   1      21.857   6.003  23.798  0.00  0.00    -0.274 OA
ENDROOT
BRANCH   1   5
ATOM      5  CA  HIS A   1      20.964   8.140  23.162  0.00  0.00    +0.151 C 
BRANCH   5   6
ATOM      6  N   HIS A   1      20.514   9.254  23.989  0.00  0.00    -0.238 NA
ATOM      7  H   HIS A   1      20.736  10.228  23.698  0.00  0.00    +0.142 HD
ENDBRANCH   5   6
BRANCH   5   8
ATOM      8  CB  HIS A   1      21.615   8.650  21.876  0.00  0.00    +0.074 C 
BRANCH   8   9
ATOM      9  CG  HIS A   1      22.224   7.568  21.040  0.00  0.00    +0.082 A 
ATOM     10  ND1 HIS A   1      23.584   7.349  20.985  0.00  0.00    -0.227 NA
ATOM     11  CE1 HIS A   1      23.830   6.335  20.174  0.00  0.00    +0.199 A 
ATOM     12  NE2 HIS A   1      22.681   5.891  19.700  0.00  0.00    -0.221 NA
ATOM     13  CD2 HIS A   1      21.659   6.642  20.230  0.00  0.00    +0.115 A 
ENDBRANCH   8   9
ENDBRANCH   5   8
ENDBRANCH   1   5
BRANCH   2  14
ATOM     14  CA  GLN A   2      23.754   7.045  25.505  0.00  0.00    +0.137 C 
BRANCH  14  15
ATOM     15  C   GLN A   2      23.007   6.156  26.496  0.00  0.00    +0.227 C 
ATOM     16  O   GLN A   2      23.416   5.026  26.752  0.00  0.00    -0.286 OA
ENDBRANCH  14  15
BRANCH  14  17
ATOM     17  CB  GLN A   2      24.730   7.960  26.244  0.00  0.00    +0.037 C 
BRANCH  17  18
ATOM     18  CG  GLN A   2      25.819   7.216  26.998  0.00  0.00    +0.087 C 
BRANCH  18  19
ATOM     19  CD  GLN A   2      26.690   6.379  26.082  0.00  0.00    +0.219 C 
ATOM     20  OE1 GLN A   2      26.864   5.180  26.297  0.00  0.00    -0.275 OA
ATOM     21  NE2 GLN A   2      27.249   7.010  25.056  0.00  0.00    -0.329 N 
ATOM     22 HE21 GLN A   2      27.074   8.025  24.912  0.00  0.00    +0.145 HD
ATOM     23 HE22 GLN A   2      27.861   6.489  24.396  0.00  0.00    +0.145 HD
ENDBRANCH  18  19
ENDBRANCH  17  18
ENDBRANCH  14  17
ENDBRANCH   2  14
TORSDOF 9
REMARK  Name = ../refined-set-2016/4qdk/4qdk_pocket.pdb
REMARK  228 active torsions:
REMARK  status: ('A' for Active; 'I' for Inactive)
REMARK    1  A    between atoms: _1  and  _3
REMARK    2  A    between atoms: _3  and  _4
REMARK    3  A    between atoms: _3  and  _6
REMARK    4  A    between atoms: _6  and  _7
REMARK    5  A    between atoms: _10  and  _12
REMARK    6  A    between atoms: _12  and  _13
REMARK    7  A    between atoms: _12  and  _15
REMARK    8  A    between atoms: _15  and  _16
REMARK    9  A    between atoms: _16  and  _17
REMARK   10  A    between atoms: _17  and  _18
REMARK   11  A    between atoms: _18  and  _19
REMARK   12  A    between atoms: _23  and  _25
REMARK   13  A    between atoms: _25  and  _26
REMARK   14  A    between atoms: _25  and  _28
REMARK   15  A    between atoms: _28  and  _29
REMARK   16  A    between atoms: _32  and  _34
REMARK   17  A    between atoms: _34  and  _35
REMARK   18  A    between atoms: _34  and  _37
REMARK   19  A    between atoms: _40  and  _42
REMARK   20  A    between atoms: _42  and  _43
REMARK   21  A    between atoms: _42  and  _45
REMARK   22  A    between atoms: _45  and  _46
REMARK   23  A    between atoms: _46  and  _47
REMARK   24  A    between atoms: _47  and  _48
REMARK   25  A    between atoms: _57  and  _59
REMARK   26  A    between atoms: _59  and  _60
REMARK   27  A    between atoms: _59  and  _62
REMARK   28  A    between atoms: _62  and  _63
REMARK   29  A    between atoms: _66  and  _68
REMARK   30  A    between atoms: _68  and  _69
REMARK   31  A    between atoms: _68  and  _71
REMARK   32  A    between atoms: _71  and  _72
REMARK   33  A    between atoms: _77  and  _78
REMARK   34  A    between atoms: _80  and  _82
REMARK   35  A    between atoms: _82  and  _83
REMARK   36  A    between atoms: _82  and  _85
REMARK   37  A    between atoms: _85  and  _86
REMARK   38  A    between atoms: _92  and  _94
REMARK   39  A    between atoms: _94  and  _95
REMARK   40  A    between atoms: _94  and  _97
REMARK   41  A    between atoms: _97  and  _98
REMARK   42  A    between atoms: _103  and  _105
REMARK   43  A    between atoms: _105  and  _106
REMARK   44  A    between atoms: _108  and  _110
REMARK   45  A    between atoms: _110  and  _111
REMARK   46  A    between atoms: _110  and  _113
REMARK   47  A    between atoms: _113  and  _114
REMARK   48  A    between atoms: _120  and  _122
REMARK   49  A    between atoms: _122  and  _123
REMARK   50  A    between atoms: _122  and  _125
REMARK   51  A    between atoms: _125  and  _126
REMARK   52  A    between atoms: _136  and  _138
REMARK   53  A    between atoms: _138  and  _139
REMARK   54  A    between atoms: _138  and  _141
REMARK   55  A    between atoms: _141  and  _142
REMARK   56  A    between atoms: _147  and  _148
REMARK   57  A    between atoms: _150  and  _152
REMARK   58  A    between atoms: _152  and  _153
REMARK   59  A    between atoms: _152  and  _155
REMARK   60  A    between atoms: _155  and  _156
REMARK   61  A    between atoms: _161  and  _163
REMARK   62  A    between atoms: _163  and  _164
REMARK   63  A    between atoms: _163  and  _166
REMARK   64  A    between atoms: _166  and  _167
REMARK   65  A    between atoms: _167  and  _168
REMARK   66  A    between atoms: _173  and  _175
REMARK   67  A    between atoms: _175  and  _176
REMARK   68  A    between atoms: _175  and  _178
REMARK   69  A    between atoms: _178  and  _179
REMARK   70  A    between atoms: _182  and  _184
REMARK   71  A    between atoms: _184  and  _185
REMARK   72  A    between atoms: _184  and  _187
REMARK   73  A    between atoms: _190  and  _192
REMARK   74  A    between atoms: _192  and  _193
REMARK   75  A    between atoms: _192  and  _195
REMARK   76  A    between atoms: _195  and  _196
REMARK   77  A    between atoms: _199  and  _201
REMARK   78  A    between atoms: _201  and  _202
REMARK   79  A    between atoms: _205  and  _207
REMARK   80  A    between atoms: _207  and  _208
REMARK   81  A    between atoms: _210  and  _212
REMARK   82  A    between atoms: _212  and  _213
REMARK   83  A    between atoms: _212  and  _215
REMARK   84  A    between atoms: _217  and  _219
REMARK   85  A    between atoms: _219  and  _220
REMARK   86  A    between atoms: _222  and  _224
REMARK   87  A    between atoms: _224  and  _225
REMARK   88  A    between atoms: _224  and  _227
REMARK   89  A    between atoms: _230  and  _232
REMARK   90  A    between atoms: _232  and  _233
REMARK   91  A    between atoms: _235  and  _237
REMARK   92  A    between atoms: _237  and  _238
REMARK   93  A    between atoms: _237  and  _240
REMARK   94  A    between atoms: _240  and  _241
REMARK   95  A    between atoms: _243  and  _245
REMARK   96  A    between atoms: _245  and  _246
REMARK   97  A    between atoms: _245  and  _248
REMARK   98  A    between atoms: _248  and  _249
REMARK   99  A    between atoms: _252  and  _254
REMARK  100  A    between atoms: _254  and  _255
REMARK  101  A    between atoms: _254  and  _257
REMARK  102  A    between atoms: _257  and  _258
REMARK  103  A    between atoms: _260  and  _262
REMARK  104  A    between atoms: _262  and  _263
REMARK  105  A    between atoms: _262  and  _265
REMARK  106  A    between atoms: _265  and  _266
REMARK  107  A    between atoms: _268  and  _270
REMARK  108  A    between atoms: _270  and  _271
REMARK  109  A    between atoms: _270  and  _273
REMARK  110  A    between atoms: _273  and  _274
REMARK  111  A    between atoms: _277  and  _279
REMARK  112  A    between atoms: _279  and  _280
REMARK  113  A    between atoms: _279  and  _282
REMARK  114  A    between atoms: _282  and  _283
REMARK  115  A    between atoms: _286  and  _288
REMARK  116  A    between atoms: _288  and  _289
REMARK  117  A    between atoms: _288  and  _291
REMARK  118  A    between atoms: _291  and  _292
REMARK  119  A    between atoms: _294  and  _296
REMARK  120  A    between atoms: _296  and  _297
REMARK  121  A    between atoms: _296  and  _299
REMARK  122  A    between atoms: _299  and  _300
REMARK  123  A    between atoms: _300  and  _301
REMARK  124  A    between atoms: _304  and  _306
REMARK  125  A    between atoms: _306  and  _307
REMARK  126  A    between atoms: _306  and  _309
REMARK  127  A    between atoms: _309  and  _310
REMARK  128  A    between atoms: _310  and  _311
REMARK  129  A    between atoms: _311  and  _312
REMARK  130  A    between atoms: _312  and  _313
REMARK  131  A    between atoms: _317  and  _319
REMARK  132  A    between atoms: _319  and  _320
REMARK  133  A    between atoms: _319  and  _322
REMARK  134  A    between atoms: _322  and  _323
REMARK  135  A    between atoms: _323  and  _324
REMARK  136  A    between atoms: _326  and  _328
REMARK  137  A    between atoms: _328  and  _329
REMARK  138  A    between atoms: _328  and  _331
REMARK  139  A    between atoms: _334  and  _336
REMARK  140  A    between atoms: _336  and  _337
REMARK  141  A    between atoms: _336  and  _339
REMARK  142  A    between atoms: _339  and  _340
REMARK  143  A    between atoms: _340  and  _341
REMARK  144  A    between atoms: _343  and  _345
REMARK  145  A    between atoms: _345  and  _346
REMARK  146  A    between atoms: _345  and  _348
REMARK  147  A    between atoms: _348  and  _349
REMARK  148  A    between atoms: _352  and  _354
REMARK  149  A    between atoms: _354  and  _355
REMARK  150  A    between atoms: _354  and  _357
REMARK  151  A    between atoms: _357  and  _358
REMARK  152  A    between atoms: _358  and  _359
REMARK  153  A    between atoms: _364  and  _366
REMARK  154  A    between atoms: _366  and  _367
REMARK  155  A    between atoms: _366  and  _369
REMARK  156  A    between atoms: _369  and  _370
REMARK  157  A    between atoms: _373  and  _375
REMARK  158  A    between atoms: _375  and  _376
REMARK  159  A    between atoms: _375  and  _378
REMARK  160  A    between atoms: _378  and  _379
REMARK  161  A    between atoms: _382  and  _384
REMARK  162  A    between atoms: _384  and  _385
REMARK  163  A    between atoms: _388  and  _390
REMARK  164  A    between atoms: _390  and  _391
REMARK  165  A    between atoms: _390  and  _393
REMARK  166  A    between atoms: _393  and  _394
REMARK  167  A    between atoms: _394  and  _395
REMARK  168  A    between atoms: _400  and  _402
REMARK  169  A    between atoms: _402  and  _403
REMARK  170  A    between atoms: _402  and  _405
REMARK  171  A    between atoms: _405  and  _406
REMARK  172  A    between atoms: _409  and  _411
REMARK  173  A    between atoms: _411  and  _412
REMARK  174  A    between atoms: _411  and  _414
REMARK  175  A    between atoms: _414  and  _415
REMARK  176  A    between atoms: _418  and  _420
REMARK  177  A    between atoms: _420  and  _421
REMARK  178  A    between atoms: _420  and  _423
REMARK  179  A    between atoms: _425  and  _427
REMARK  180  A    between atoms: _427  and  _428
REMARK  181  A    between atoms: _427  and  _430
REMARK  182  A    between atoms: _430  and  _431
REMARK  183  A    between atoms: _434  and  _436
REMARK  184  A    between atoms: _436  and  _437
REMARK  185  A    between atoms: _436  and  _439
REMARK  186  A    between atoms: _439  and  _440
REMARK  187  A    between atoms: _443  and  _445
REMARK  188  A    between atoms: _445  and  _446
REMARK  189  A    between atoms: _445  and  _448
REMARK  190  A    between atoms: _451  and  _453
REMARK  191  A    between atoms: _453  and  _454
REMARK  192  A    between atoms: _453  and  _456
REMARK  193  A    between atoms: _456  and  _457
REMARK  194  A    between atoms: _460  and  _462
REMARK  195  A    between atoms: _462  and  _463
REMARK  196  A    between atoms: _462  and  _465
REMARK  197  A    between atoms: _465  and  _466
REMARK  198  A    between atoms: _469  and  _471
REMARK  199  A    between atoms: _471  and  _472
REMARK  200  A    between atoms: _471  and  _474
REMARK  201  A    between atoms: _474  and  _475
REMARK  202  A    between atoms: _480  and  _482
REMARK  203  A    between atoms: _482  and  _483
REMARK  204  A    between atoms: _482  and  _485
REMARK  205  A    between atoms: _485  and  _486
REMARK  206  A    between atoms: _491  and  _492
REMARK  207  A    between atoms: _494  and  _496
REMARK  208  A    between atoms: _496  and  _497
REMARK  209  A    between atoms: _496  and  _499
REMARK  210  A    between atoms: _499  and  _500
REMARK  211  A    between atoms: _500  and  _501
REMARK  212  A    between atoms: _503  and  _505
REMARK  213  A    between atoms: _505  and  _506
REMARK  214  A    between atoms: _505  and  _508
REMARK  215  A    between atoms: _508  and  _509
REMARK  216  A    between atoms: _512  and  _514
REMARK  217  A    between atoms: _514  and  _515
REMARK  218  A    between atoms: _514  and  _517
REMARK  219  A    between atoms: _517  and  _518
REMARK  220  A    between atoms: _520  and  _522
REMARK  221  A    between atoms: _522  and  _523
REMARK  222  A    between atoms: _522  and  _525
REMARK  223  A    between atoms: _525  and  _526
REMARK  224  A    between atoms: _531  and  _532
REMARK  225  A    between atoms: _534  and  _536
REMARK  226  A    between atoms: _536  and  _537
REMARK  227  A    between atoms: _536  and  _539
REMARK  228  A    between atoms: _539  and  _540
REMARK                            x       y       z     vdW  Elec       q    Type
REMARK                         _______ _______ _______ _____ _____    ______ ____
ROOT
ATOM      1  C   THR A   1      20.426   2.708  25.021  0.00  0.00    +0.241 C 
ATOM      2  O   THR A   1      20.175   1.522  25.251  0.00  0.00    -0.274 OA
ATOM      3  N   VAL A   2      21.594   3.129  24.543  0.00  0.00    -0.298 N 
ATOM      4  H   VAL A   2      21.729   4.144  24.360  0.00  0.00    +0.150 HD
ENDROOT
BRANCH   1   5
ATOM      5  CA  THR A   1      19.388   3.791  25.289  0.00  0.00    +0.172 C 
BRANCH   5   6
ATOM      6  N   THR A   1      19.972   4.881  26.061  0.00  0.00    -0.236 NA
ATOM      7  H   THR A   1      20.008   5.835  25.649  0.00  0.00    +0.142 HD
ENDBRANCH   5   6
BRANCH   5   8
ATOM      8  CB  THR A   1      18.818   4.288  23.951  0.00  0.00    +0.135 C 
ATOM      9  CG2 THR A   1      18.283   3.118  23.136  0.00  0.00    +0.034 C 
BRANCH   8  10
ATOM     10  OG1 THR A   1      17.758   5.218  24.202  0.00  0.00    -0.383 OA
ATOM     11  HG1 THR A   1      17.391   5.538  23.340  0.00  0.00    +0.210 HD
ENDBRANCH   8  10
ENDBRANCH   5   8
ENDBRANCH   1   5
BRANCH   3  12
ATOM     12  CA  VAL A   2      22.691   2.207  24.269  0.00  0.00    +0.137 C 
BRANCH  12  13
ATOM     13  CB  VAL A   2      23.926   2.943  23.710  0.00  0.00    +0.026 C 
ATOM     14  CG2 VAL A   2      25.132   2.015  23.677  0.00  0.00    +0.002 C 
ATOM     15  CG1 VAL A   2      23.629   3.498  22.326  0.00  0.00    +0.002 C 
ENDBRANCH  12  13
BRANCH  12  16
ATOM     16  C   VAL A   2      23.079   1.447  25.529  0.00  0.00    +0.227 C 
ATOM     17  O   VAL A   2      23.193   0.224  25.508  0.00  0.00    -0.286 OA
ENDBRANCH  12  16
ENDBRANCH   3  12
TORSDOF 7
REMARK  Name = ../refined-set-2016/4qdk/4qdk_pocket.pdb
REMARK  228 active torsions:
REMARK  status: ('A' for Active; 'I' for Inactive)
REMARK    1  A    between atoms: _1  and  _3
REMARK    2  A    between atoms: _3  and  _4
REMARK    3  A    between atoms: _3  and  _6
REMARK    4  A    between atoms: _6  and  _7
REMARK    5  A    between atoms: _10  and  _12
REMARK    6  A    between atoms: _12  and  _13
REMARK    7  A    between atoms: _12  and  _15
REMARK    8  A    between atoms: _15  and  _16
REMARK    9  A    between atoms: _16  and  _17
REMARK   10  A    between atoms: _17  and  _18
REMARK   11  A    between atoms: _18  and  _19
REMARK   12  A    between atoms: _23  and  _25
REMARK   13  A    between atoms: _25  and  _26
REMARK   14  A    between atoms: _25  and  _28
REMARK   15  A    between atoms: _28  and  _29
REMARK   16  A    between atoms: _32  and  _34
REMARK   17  A    between atoms: _34  and  _35
REMARK   18  A    between atoms: _34  and  _37
REMARK   19  A    between atoms: _40  and  _42
REMARK   20  A    between atoms: _42  and  _43
REMARK   21  A    between atoms: _42  and  _45
REMARK   22  A    between atoms: _45  and  _46
REMARK   23  A    between atoms: _46  and  _47
REMARK   24  A    between atoms: _47  and  _48
REMARK   25  A    between atoms: _57  and  _59
REMARK   26  A    between atoms: _59  and  _60
REMARK   27  A    between atoms: _59  and  _62
REMARK   28  A    between atoms: _62  and  _63
REMARK   29  A    between atoms: _66  and  _68
REMARK   30  A    between atoms: _68  and  _69
REMARK   31  A    between atoms: _68  and  _71
REMARK   32  A    between atoms: _71  and  _72
REMARK   33  A    between atoms: _77  and  _78
REMARK   34  A    between atoms: _80  and  _82
REMARK   35  A    between atoms: _82  and  _83
REMARK   36  A    between atoms: _82  and  _85
REMARK   37  A    between atoms: _85  and  _86
REMARK   38  A    between atoms: _92  and  _94
REMARK   39  A    between atoms: _94  and  _95
REMARK   40  A    between atoms: _94  and  _97
REMARK   41  A    between atoms: _97  and  _98
REMARK   42  A    between atoms: _103  and  _105
REMARK   43  A    between atoms: _105  and  _106
REMARK   44  A    between atoms: _108  and  _110
REMARK   45  A    between atoms: _110  and  _111
REMARK   46  A    between atoms: _110  and  _113
REMARK   47  A    between atoms: _113  and  _114
REMARK   48  A    between atoms: _120  and  _122
REMARK   49  A    between atoms: _122  and  _123
REMARK   50  A    between atoms: _122  and  _125
REMARK   51  A    between atoms: _125  and  _126
REMARK   52  A    between atoms: _136  and  _138
REMARK   53  A    between atoms: _138  and  _139
REMARK   54  A    between atoms: _138  and  _141
REMARK   55  A    between atoms: _141  and  _142
REMARK   56  A    between atoms: _147  and  _148
REMARK   57  A    between atoms: _150  and  _152
REMARK   58  A    between atoms: _152  and  _153
REMARK   59  A    between atoms: _152  and  _155
REMARK   60  A    between atoms: _155  and  _156
REMARK   61  A    between atoms: _161  and  _163
REMARK   62  A    between atoms: _163  and  _164
REMARK   63  A    between atoms: _163  and  _166
REMARK   64  A    between atoms: _166  and  _167
REMARK   65  A    between atoms: _167  and  _168
REMARK   66  A    between atoms: _173  and  _175
REMARK   67  A    between atoms: _175  and  _176
REMARK   68  A    between atoms: _175  and  _178
REMARK   69  A    between atoms: _178  and  _179
REMARK   70  A    between atoms: _182  and  _184
REMARK   71  A    between atoms: _184  and  _185
REMARK   72  A    between atoms: _184  and  _187
REMARK   73  A    between atoms: _190  and  _192
REMARK   74  A    between atoms: _192  and  _193
REMARK   75  A    between atoms: _192  and  _195
REMARK   76  A    between atoms: _195  and  _196
REMARK   77  A    between atoms: _199  and  _201
REMARK   78  A    between atoms: _201  and  _202
REMARK   79  A    between atoms: _205  and  _207
REMARK   80  A    between atoms: _207  and  _208
REMARK   81  A    between atoms: _210  and  _212
REMARK   82  A    between atoms: _212  and  _213
REMARK   83  A    between atoms: _212  and  _215
REMARK   84  A    between atoms: _217  and  _219
REMARK   85  A    between atoms: _219  and  _220
REMARK   86  A    between atoms: _222  and  _224
REMARK   87  A    between atoms: _224  and  _225
REMARK   88  A    between atoms: _224  and  _227
REMARK   89  A    between atoms: _230  and  _232
REMARK   90  A    between atoms: _232  and  _233
REMARK   91  A    between atoms: _235  and  _237
REMARK   92  A    between atoms: _237  and  _238
REMARK   93  A    between atoms: _237  and  _240
REMARK   94  A    between atoms: _240  and  _241
REMARK   95  A    between atoms: _243  and  _245
REMARK   96  A    between atoms: _245  and  _246
REMARK   97  A    between atoms: _245  and  _248
REMARK   98  A    between atoms: _248  and  _249
REMARK   99  A    between atoms: _252  and  _254
REMARK  100  A    between atoms: _254  and  _255
REMARK  101  A    between atoms: _254  and  _257
REMARK  102  A    between atoms: _257  and  _258
REMARK  103  A    between atoms: _260  and  _262
REMARK  104  A    between atoms: _262  and  _263
REMARK  105  A    between atoms: _262  and  _265
REMARK  106  A    between atoms: _265  and  _266
REMARK  107  A    between atoms: _268  and  _270
REMARK  108  A    between atoms: _270  and  _271
REMARK  109  A    between atoms: _270  and  _273
REMARK  110  A    between atoms: _273  and  _274
REMARK  111  A    between atoms: _277  and  _279
REMARK  112  A    between atoms: _279  and  _280
REMARK  113  A    between atoms: _279  and  _282
REMARK  114  A    between atoms: _282  and  _283
REMARK  115  A    between atoms: _286  and  _288
REMARK  116  A    between atoms: _288  and  _289
REMARK  117  A    between atoms: _288  and  _291
REMARK  118  A    between atoms: _291  and  _292
REMARK  119  A    between atoms: _294  and  _296
REMARK  120  A    between atoms: _296  and  _297
REMARK  121  A    between atoms: _296  and  _299
REMARK  122  A    between atoms: _299  and  _300
REMARK  123  A    between atoms: _300  and  _301
REMARK  124  A    between atoms: _304  and  _306
REMARK  125  A    between atoms: _306  and  _307
REMARK  126  A    between atoms: _306  and  _309
REMARK  127  A    between atoms: _309  and  _310
REMARK  128  A    between atoms: _310  and  _311
REMARK  129  A    between atoms: _311  and  _312
REMARK  130  A    between atoms: _312  and  _313
REMARK  131  A    between atoms: _317  and  _319
REMARK  132  A    between atoms: _319  and  _320
REMARK  133  A    between atoms: _319  and  _322
REMARK  134  A    between atoms: _322  and  _323
REMARK  135  A    between atoms: _323  and  _324
REMARK  136  A    between atoms: _326  and  _328
REMARK  137  A    between atoms: _328  and  _329
REMARK  138  A    between atoms: _328  and  _331
REMARK  139  A    between atoms: _334  and  _336
REMARK  140  A    between atoms: _336  and  _337
REMARK  141  A    between atoms: _336  and  _339
REMARK  142  A    between atoms: _339  and  _340
REMARK  143  A    between atoms: _340  and  _341
REMARK  144  A    between atoms: _343  and  _345
REMARK  145  A    between atoms: _345  and  _346
REMARK  146  A    between atoms: _345  and  _348
REMARK  147  A    between atoms: _348  and  _349
REMARK  148  A    between atoms: _352  and  _354
REMARK  149  A    between atoms: _354  and  _355
REMARK  150  A    between atoms: _354  and  _357
REMARK  151  A    between atoms: _357  and  _358
REMARK  152  A    between atoms: _358  and  _359
REMARK  153  A    between atoms: _364  and  _366
REMARK  154  A    between atoms: _366  and  _367
REMARK  155  A    between atoms: _366  and  _369
REMARK  156  A    between atoms: _369  and  _370
REMARK  157  A    between atoms: _373  and  _375
REMARK  158  A    between atoms: _375  and  _376
REMARK  159  A    between atoms: _375  and  _378
REMARK  160  A    between atoms: _378  and  _379
REMARK  161  A    between atoms: _382  and  _384
REMARK  162  A    between atoms: _384  and  _385
REMARK  163  A    between atoms: _388  and  _390
REMARK  164  A    between atoms: _390  and  _391
REMARK  165  A    between atoms: _390  and  _393
REMARK  166  A    between atoms: _393  and  _394
REMARK  167  A    between atoms: _394  and  _395
REMARK  168  A    between atoms: _400  and  _402
REMARK  169  A    between atoms: _402  and  _403
REMARK  170  A    between atoms: _402  and  _405
REMARK  171  A    between atoms: _405  and  _406
REMARK  172  A    between atoms: _409  and  _411
REMARK  173  A    between atoms: _411  and  _412
REMARK  174  A    between atoms: _411  and  _414
REMARK  175  A    between atoms: _414  and  _415
REMARK  176  A    between atoms: _418  and  _420
REMARK  177  A    between atoms: _420  and  _421
REMARK  178  A    between atoms: _420  and  _423
REMARK  179  A    between atoms: _425  and  _427
REMARK  180  A    between atoms: _427  and  _428
REMARK  181  A    between atoms: _427  and  _430
REMARK  182  A    between atoms: _430  and  _431
REMARK  183  A    between atoms: _434  and  _436
REMARK  184  A    between atoms: _436  and  _437
REMARK  185  A    between atoms: _436  and  _439
REMARK  186  A    between atoms: _439  and  _440
REMARK  187  A    between atoms: _443  and  _445
REMARK  188  A    between atoms: _445  and  _446
REMARK  189  A    between atoms: _445  and  _448
REMARK  190  A    between atoms: _451  and  _453
REMARK  191  A    between atoms: _453  and  _454
REMARK  192  A    between atoms: _453  and  _456
REMARK  193  A    between atoms: _456  and  _457
REMARK  194  A    between atoms: _460  and  _462
REMARK  195  A    between atoms: _462  and  _463
REMARK  196  A    between atoms: _462  and  _465
REMARK  197  A    between atoms: _465  and  _466
REMARK  198  A    between atoms: _469  and  _471
REMARK  199  A    between atoms: _471  and  _472
REMARK  200  A    between atoms: _471  and  _474
REMARK  201  A    between atoms: _474  and  _475
REMARK  202  A    between atoms: _480  and  _482
REMARK  203  A    between atoms: _482  and  _483
REMARK  204  A    between atoms: _482  and  _485
REMARK  205  A    between atoms: _485  and  _486
REMARK  206  A    between atoms: _491  and  _492
REMARK  207  A    between atoms: _494  and  _496
REMARK  208  A    between atoms: _496  and  _497
REMARK  209  A    between atoms: _496  and  _499
REMARK  210  A    between atoms: _499  and  _500
REMARK  211  A    between atoms: _500  and  _501
REMARK  212  A    between atoms: _503  and  _505
REMARK  213  A    between atoms: _505  and  _506
REMARK  214  A    between atoms: _505  and  _508
REMARK  215  A    between atoms: _508  and  _509
REMARK  216  A    between atoms: _512  and  _514
REMARK  217  A    between atoms: _514  and  _515
REMARK  218  A    between atoms: _514  and  _517
REMARK  219  A    between atoms: _517  and  _518
REMARK  220  A    between atoms: _520  and  _522
REMARK  221  A    between atoms: _522  and  _523
REMARK  222  A    between atoms: _522  and  _525
REMARK  223  A    between atoms: _525  and  _526
REMARK  224  A    between atoms: _531  and  _532
REMARK  225  A    between atoms: _534  and  _536
REMARK  226  A    between atoms: _536  and  _537
REMARK  227  A    between atoms: _536  and  _539
REMARK  228  A    between atoms: _539  and  _540
REMARK                            x       y       z     vdW  Elec       q    Type
REMARK                         _______ _______ _______ _____ _____    ______ ____
ROOT
ATOM      1  CA  VAL A   6      29.016   5.154  14.057  0.00  0.00    +0.149 C 
ENDROOT
BRANCH   1   3
ATOM      2  C   GLY A   5      27.070   4.340  12.846  0.00  0.00    +0.243 C 
ATOM      3  N   VAL A   6      27.576   5.088  13.822  0.00  0.00    -0.297 N 
ATOM      4  H   VAL A   6      26.934   5.636  14.429  0.00  0.00    +0.150 HD
ATOM      5  O   GLY A   5      27.768   3.660  12.096  0.00  0.00    -0.273 OA
BRANCH   2   6
ATOM      6  CA  GLY A   5      25.559   4.339  12.706  0.00  0.00    +0.176 C 
BRANCH   6   9
ATOM      7  C   CYS A   4      25.243   2.093  13.568  0.00  0.00    +0.242 C 
ATOM      8  O   CYS A   4      25.838   2.359  14.612  0.00  0.00    -0.273 OA
ATOM      9  N   GLY A   5      25.041   2.986  12.604  0.00  0.00    -0.295 N 
ATOM     10  H   GLY A   5      24.501   2.710  11.759  0.00  0.00    +0.150 HD
BRANCH   7  11
ATOM     11  CA  CYS A   4      24.704   0.684  13.333  0.00  0.00    +0.160 C 
BRANCH  11  14
ATOM     12  C   GLY A   3      22.571   1.067  12.201  0.00  0.00    +0.243 C 
ATOM     13  O   GLY A   3      22.185   1.885  13.035  0.00  0.00    -0.273 OA
ATOM     14  N   CYS A   4      23.795   0.548  12.201  0.00  0.00    -0.296 N 
ATOM     15  H   CYS A   4      24.116   0.025  11.362  0.00  0.00    +0.150 HD
BRANCH  12  16
ATOM     16  CA  GLY A   3      21.660   0.598  11.083  0.00  0.00    +0.176 C 
BRANCH  16  19
ATOM     17  C   ALA A   2      21.032  -1.615  11.868  0.00  0.00    +0.241 C 
ATOM     18  O   ALA A   2      20.228  -1.161  12.681  0.00  0.00    -0.273 OA
ATOM     19  N   GLY A   3      21.698  -0.852  11.007  0.00  0.00    -0.295 N 
ATOM     20  H   GLY A   3      22.261  -1.305  10.259  0.00  0.00    +0.150 HD
BRANCH  17  21
ATOM     21  CA  ALA A   2      21.308  -3.115  11.797  0.00  0.00    +0.149 C 
ATOM     22  CB  ALA A   2      20.051  -3.873  11.373  0.00  0.00    +0.031 C 
BRANCH  21  24
ATOM     23  C   ASP A   1      23.118  -3.723  13.326  0.00  0.00    +0.239 C 
ATOM     24  N   ALA A   2      21.815  -3.636  13.065  0.00  0.00    -0.297 N 
ATOM     25  H   ALA A   2      21.136  -3.949  13.787  0.00  0.00    +0.150 HD
ATOM     26  O   ASP A   1      23.985  -3.305  12.557  0.00  0.00    -0.274 OA
BRANCH  23  27
ATOM     27  CA  ASP A   1      23.502  -4.412  14.634  0.00  0.00    +0.156 C 
BRANCH  27  28
ATOM     28  N   ASP A   1      23.857  -5.793  14.325  0.00  0.00    -0.238 NA
ATOM     29  H   ASP A   1      24.773  -5.988  13.872  0.00  0.00    +0.142 HD
ENDBRANCH  27  28
BRANCH  27  30
ATOM     30  CB  ASP A   1      24.679  -3.707  15.324  0.00  0.00    +0.140 C 
BRANCH  30  31
ATOM     31  CG  ASP A   1      24.314  -2.334  15.866  0.00  0.00    +0.367 C 
ATOM     32  OD2 ASP A   1      25.214  -1.644  16.400  0.00  0.00    -0.246 OA
ATOM     33  OD1 ASP A   1      23.131  -1.950  15.781  0.00  0.00    -0.246 OA
ENDBRANCH  30  31
ENDBRANCH  27  30
ENDBRANCH  23  27
ENDBRANCH  21  24
ENDBRANCH  17  21
ENDBRANCH  16  19
ENDBRANCH  12  16
ENDBRANCH  11  14
BRANCH  11  34
ATOM     34  CB  CYS A   4      25.873  -0.293  13.184  0.00  0.00    +0.098 C 
ATOM     35  SG  CYS A   4      26.925   0.015  11.753  0.00  0.00    -0.080 S 
ENDBRANCH  11  34
ENDBRANCH   7  11
ENDBRANCH   6   9
ENDBRANCH   2   6
ENDBRANCH   1   3
BRANCH   1  36
ATOM     36  C   VAL A   6      29.479   4.094  15.055  0.00  0.00    +0.241 C 
ATOM     37  O   VAL A   6      30.565   4.194  15.627  0.00  0.00    -0.273 OA
ATOM     38  N   GLY A   7      28.644   3.080  15.258  0.00  0.00    -0.295 N 
ATOM     39  H   GLY A   7      27.709   3.098  14.802  0.00  0.00    +0.150 HD
BRANCH  38  40
ATOM     40  CA  GLY A   7      28.997   1.948  16.097  0.00  0.00    +0.176 C 
BRANCH  40  41
ATOM     41  C   GLY A   7      28.850   2.184  17.588  0.00  0.00    +0.243 C 
ATOM     42  O   GLY A   7      29.501   1.515  18.388  0.00  0.00    -0.273 OA
ATOM     43  N   SER A   8      27.984   3.122  17.963  0.00  0.00    -0.295 N 
ATOM     44  H   SER A   8      27.445   3.632  17.234  0.00  0.00    +0.150 HD
BRANCH  43  45
ATOM     45  CA  SER A   8      27.768   3.457  19.371  0.00  0.00    +0.178 C 
BRANCH  45  46
ATOM     46  C   SER A   8      27.394   2.245  20.217  0.00  0.00    +0.243 C 
ATOM     47  O   SER A   8      27.736   2.179  21.397  0.00  0.00    -0.273 OA
ATOM     48  N   LEU A   9      26.696   1.290  19.606  0.00  0.00    -0.297 N 
ATOM     49  H   LEU A   9      26.431   1.420  18.609  0.00  0.00    +0.150 HD
BRANCH  48  50
ATOM     50  CA  LEU A   9      26.292   0.068  20.290  0.00  0.00    +0.149 C 
BRANCH  50  51
ATOM     51  C   LEU A   9      27.203  -1.099  19.934  0.00  0.00    +0.241 C 
ATOM     52  O   LEU A   9      27.494  -1.947  20.781  0.00  0.00    -0.273 OA
ATOM     53  N   SER A  10      27.651  -1.134  18.682  0.00  0.00    -0.296 N 
ATOM     54  H   SER A  10      27.379  -0.373  18.028  0.00  0.00    +0.150 HD
BRANCH  53  55
ATOM     55  CA  SER A  10      28.514  -2.211  18.198  0.00  0.00    +0.166 C 
BRANCH  55  56
ATOM     56  CB  SER A  10      29.777  -2.334  19.040  0.00  0.00    +0.229 C 
ATOM     57  OG  SER A  10      30.180  -3.431  19.441  0.00  0.00    -0.286 OA
ENDBRANCH  55  56
BRANCH  55  58
ATOM     58  C   SER A  10      28.907  -1.959  16.740  0.00  0.00    +0.165 C 
BRANCH  58  59
ATOM     59  O   SER A  10      27.761  -1.825  15.916  0.00  0.00    -0.380 OA
ATOM     60  H   SER A  10      27.215  -1.062  16.233  0.00  0.00    +0.211 HD
ENDBRANCH  58  59
ENDBRANCH  55  58
ENDBRANCH  53  55
ENDBRANCH  50  51
BRANCH  50  61
ATOM     61  CB  LEU A   9      24.840  -0.279  19.949  0.00  0.00    +0.029 C 
BRANCH  61  62
ATOM     62  CG  LEU A   9      24.329  -1.632  20.455  0.00  0.00    +0.002 C 
ATOM     63  CD2 LEU A   9      24.129  -1.617  21.963  0.00  0.00    +0.000 C 
ATOM     64  CD1 LEU A   9      23.050  -2.026  19.734  0.00  0.00    +0.000 C 
ENDBRANCH  61  62
ENDBRANCH  50  61
ENDBRANCH  48  50
ENDBRANCH  45  46
BRANCH  45  65
ATOM     65  CB  SER A   8      26.690   4.534  19.508  0.00  0.00    +0.166 C 
BRANCH  65  66
ATOM     66  OG  SER A   8      27.112   5.752  18.916  0.00  0.00    -0.380 OA
ATOM     67  H   SER A   8      27.294   5.604  17.954  0.00  0.00    +0.211 HD
ENDBRANCH  65  66
ENDBRANCH  45  65
ENDBRANCH  43  45
ENDBRANCH  40  41
ENDBRANCH  38  40
ENDBRANCH   1  36
BRANCH   1  68
ATOM     68  CB  VAL A   6      29.454   6.552  14.537  0.00  0.00    +0.027 C 
ATOM     69  CG2 VAL A   6      28.758   6.911  15.836  0.00  0.00    +0.002 C 
ATOM     70  CG1 VAL A   6      29.168   7.593  13.465  0.00  0.00    +0.002 C 
ENDBRANCH   1  68
TORSDOF 30
REMARK  Name = ../refined-set-2016/4qdk/4qdk_pocket.pdb
REMARK  228 active torsions:
REMARK  status: ('A' for Active; 'I' for Inactive)
REMARK    1  A    between atoms: _1  and  _3
REMARK    2  A    between atoms: _3  and  _4
REMARK    3  A    between atoms: _3  and  _6
REMARK    4  A    between atoms: _6  and  _7
REMARK    5  A    between atoms: _10  and  _12
REMARK    6  A    between atoms: _12  and  _13
REMARK    7  A    between atoms: _12  and  _15
REMARK    8  A    between atoms: _15  and  _16
REMARK    9  A    between atoms: _16  and  _17
REMARK   10  A    between atoms: _17  and  _18
REMARK   11  A    between atoms: _18  and  _19
REMARK   12  A    between atoms: _23  and  _25
REMARK   13  A    between atoms: _25  and  _26
REMARK   14  A    between atoms: _25  and  _28
REMARK   15  A    between atoms: _28  and  _29
REMARK   16  A    between atoms: _32  and  _34
REMARK   17  A    between atoms: _34  and  _35
REMARK   18  A    between atoms: _34  and  _37
REMARK   19  A    between atoms: _40  and  _42
REMARK   20  A    between atoms: _42  and  _43
REMARK   21  A    between atoms: _42  and  _45
REMARK   22  A    between atoms: _45  and  _46
REMARK   23  A    between atoms: _46  and  _47
REMARK   24  A    between atoms: _47  and  _48
REMARK   25  A    between atoms: _57  and  _59
REMARK   26  A    between atoms: _59  and  _60
REMARK   27  A    between atoms: _59  and  _62
REMARK   28  A    between atoms: _62  and  _63
REMARK   29  A    between atoms: _66  and  _68
REMARK   30  A    between atoms: _68  and  _69
REMARK   31  A    between atoms: _68  and  _71
REMARK   32  A    between atoms: _71  and  _72
REMARK   33  A    between atoms: _77  and  _78
REMARK   34  A    between atoms: _80  and  _82
REMARK   35  A    between atoms: _82  and  _83
REMARK   36  A    between atoms: _82  and  _85
REMARK   37  A    between atoms: _85  and  _86
REMARK   38  A    between atoms: _92  and  _94
REMARK   39  A    between atoms: _94  and  _95
REMARK   40  A    between atoms: _94  and  _97
REMARK   41  A    between atoms: _97  and  _98
REMARK   42  A    between atoms: _103  and  _105
REMARK   43  A    between atoms: _105  and  _106
REMARK   44  A    between atoms: _108  and  _110
REMARK   45  A    between atoms: _110  and  _111
REMARK   46  A    between atoms: _110  and  _113
REMARK   47  A    between atoms: _113  and  _114
REMARK   48  A    between atoms: _120  and  _122
REMARK   49  A    between atoms: _122  and  _123
REMARK   50  A    between atoms: _122  and  _125
REMARK   51  A    between atoms: _125  and  _126
REMARK   52  A    between atoms: _136  and  _138
REMARK   53  A    between atoms: _138  and  _139
REMARK   54  A    between atoms: _138  and  _141
REMARK   55  A    between atoms: _141  and  _142
REMARK   56  A    between atoms: _147  and  _148
REMARK   57  A    between atoms: _150  and  _152
REMARK   58  A    between atoms: _152  and  _153
REMARK   59  A    between atoms: _152  and  _155
REMARK   60  A    between atoms: _155  and  _156
REMARK   61  A    between atoms: _161  and  _163
REMARK   62  A    between atoms: _163  and  _164
REMARK   63  A    between atoms: _163  and  _166
REMARK   64  A    between atoms: _166  and  _167
REMARK   65  A    between atoms: _167  and  _168
REMARK   66  A    between atoms: _173  and  _175
REMARK   67  A    between atoms: _175  and  _176
REMARK   68  A    between atoms: _175  and  _178
REMARK   69  A    between atoms: _178  and  _179
REMARK   70  A    between atoms: _182  and  _184
REMARK   71  A    between atoms: _184  and  _185
REMARK   72  A    between atoms: _184  and  _187
REMARK   73  A    between atoms: _190  and  _192
REMARK   74  A    between atoms: _192  and  _193
REMARK   75  A    between atoms: _192  and  _195
REMARK   76  A    between atoms: _195  and  _196
REMARK   77  A    between atoms: _199  and  _201
REMARK   78  A    between atoms: _201  and  _202
REMARK   79  A    between atoms: _205  and  _207
REMARK   80  A    between atoms: _207  and  _208
REMARK   81  A    between atoms: _210  and  _212
REMARK   82  A    between atoms: _212  and  _213
REMARK   83  A    between atoms: _212  and  _215
REMARK   84  A    between atoms: _217  and  _219
REMARK   85  A    between atoms: _219  and  _220
REMARK   86  A    between atoms: _222  and  _224
REMARK   87  A    between atoms: _224  and  _225
REMARK   88  A    between atoms: _224  and  _227
REMARK   89  A    between atoms: _230  and  _232
REMARK   90  A    between atoms: _232  and  _233
REMARK   91  A    between atoms: _235  and  _237
REMARK   92  A    between atoms: _237  and  _238
REMARK   93  A    between atoms: _237  and  _240
REMARK   94  A    between atoms: _240  and  _241
REMARK   95  A    between atoms: _243  and  _245
REMARK   96  A    between atoms: _245  and  _246
REMARK   97  A    between atoms: _245  and  _248
REMARK   98  A    between atoms: _248  and  _249
REMARK   99  A    between atoms: _252  and  _254
REMARK  100  A    between atoms: _254  and  _255
REMARK  101  A    between atoms: _254  and  _257
REMARK  102  A    between atoms: _257  and  _258
REMARK  103  A    between atoms: _260  and  _262
REMARK  104  A    between atoms: _262  and  _263
REMARK  105  A    between atoms: _262  and  _265
REMARK  106  A    between atoms: _265  and  _266
REMARK  107  A    between atoms: _268  and  _270
REMARK  108  A    between atoms: _270  and  _271
REMARK  109  A    between atoms: _270  and  _273
REMARK  110  A    between atoms: _273  and  _274
REMARK  111  A    between atoms: _277  and  _279
REMARK  112  A    between atoms: _279  and  _280
REMARK  113  A    between atoms: _279  and  _282
REMARK  114  A    between atoms: _282  and  _283
REMARK  115  A    between atoms: _286  and  _288
REMARK  116  A    between atoms: _288  and  _289
REMARK  117  A    between atoms: _288  and  _291
REMARK  118  A    between atoms: _291  and  _292
REMARK  119  A    between atoms: _294  and  _296
REMARK  120  A    between atoms: _296  and  _297
REMARK  121  A    between atoms: _296  and  _299
REMARK  122  A    between atoms: _299  and  _300
REMARK  123  A    between atoms: _300  and  _301
REMARK  124  A    between atoms: _304  and  _306
REMARK  125  A    between atoms: _306  and  _307
REMARK  126  A    between atoms: _306  and  _309
REMARK  127  A    between atoms: _309  and  _310
REMARK  128  A    between atoms: _310  and  _311
REMARK  129  A    between atoms: _311  and  _312
REMARK  130  A    between atoms: _312  and  _313
REMARK  131  A    between atoms: _317  and  _319
REMARK  132  A    between atoms: _319  and  _320
REMARK  133  A    between atoms: _319  and  _322
REMARK  134  A    between atoms: _322  and  _323
REMARK  135  A    between atoms: _323  and  _324
REMARK  136  A    between atoms: _326  and  _328
REMARK  137  A    between atoms: _328  and  _329
REMARK  138  A    between atoms: _328  and  _331
REMARK  139  A    between atoms: _334  and  _336
REMARK  140  A    between atoms: _336  and  _337
REMARK  141  A    between atoms: _336  and  _339
REMARK  142  A    between atoms: _339  and  _340
REMARK  143  A    between atoms: _340  and  _341
REMARK  144  A    between atoms: _343  and  _345
REMARK  145  A    between atoms: _345  and  _346
REMARK  146  A    between atoms: _345  and  _348
REMARK  147  A    between atoms: _348  and  _349
REMARK  148  A    between atoms: _352  and  _354
REMARK  149  A    between atoms: _354  and  _355
REMARK  150  A    between atoms: _354  and  _357
REMARK  151  A    between atoms: _357  and  _358
REMARK  152  A    between atoms: _358  and  _359
REMARK  153  A    between atoms: _364  and  _366
REMARK  154  A    between atoms: _366  and  _367
REMARK  155  A    between atoms: _366  and  _369
REMARK  156  A    between atoms: _369  and  _370
REMARK  157  A    between atoms: _373  and  _375
REMARK  158  A    between atoms: _375  and  _376
REMARK  159  A    between atoms: _375  and  _378
REMARK  160  A    between atoms: _378  and  _379
REMARK  161  A    between atoms: _382  and  _384
REMARK  162  A    between atoms: _384  and  _385
REMARK  163  A    between atoms: _388  and  _390
REMARK  164  A    between atoms: _390  and  _391
REMARK  165  A    between atoms: _390  and  _393
REMARK  166  A    between atoms: _393  and  _394
REMARK  167  A    between atoms: _394  and  _395
REMARK  168  A    between atoms: _400  and  _402
REMARK  169  A    between atoms: _402  and  _403
REMARK  170  A    between atoms: _402  and  _405
REMARK  171  A    between atoms: _405  and  _406
REMARK  172  A    between atoms: _409  and  _411
REMARK  173  A    between atoms: _411  and  _412
REMARK  174  A    between atoms: _411  and  _414
REMARK  175  A    between atoms: _414  and  _415
REMARK  176  A    between atoms: _418  and  _420
REMARK  177  A    between atoms: _420  and  _421
REMARK  178  A    between atoms: _420  and  _423
REMARK  179  A    between atoms: _425  and  _427
REMARK  180  A    between atoms: _427  and  _428
REMARK  181  A    between atoms: _427  and  _430
REMARK  182  A    between atoms: _430  and  _431
REMARK  183  A    between atoms: _434  and  _436
REMARK  184  A    between atoms: _436  and  _437
REMARK  185  A    between atoms: _436  and  _439
REMARK  186  A    between atoms: _439  and  _440
REMARK  187  A    between atoms: _443  and  _445
REMARK  188  A    between atoms: _445  and  _446
REMARK  189  A    between atoms: _445  and  _448
REMARK  190  A    between atoms: _451  and  _453
REMARK  191  A    between atoms: _453  and  _454
REMARK  192  A    between atoms: _453  and  _456
REMARK  193  A    between atoms: _456  and  _457
REMARK  194  A    between atoms: _460  and  _462
REMARK  195  A    between atoms: _462  and  _463
REMARK  196  A    between atoms: _462  and  _465
REMARK  197  A    between atoms: _465  and  _466
REMARK  198  A    between atoms: _469  and  _471
REMARK  199  A    between atoms: _471  and  _472
REMARK  200  A    between atoms: _471  and  _474
REMARK  201  A    between atoms: _474  and  _475
REMARK  202  A    between atoms: _480  and  _482
REMARK  203  A    between atoms: _482  and  _483
REMARK  204  A    between atoms: _482  and  _485
REMARK  205  A    between atoms: _485  and  _486
REMARK  206  A    between atoms: _491  and  _492
REMARK  207  A    between atoms: _494  and  _496
REMARK  208  A    between atoms: _496  and  _497
REMARK  209  A    between atoms: _496  and  _499
REMARK  210  A    between atoms: _499  and  _500
REMARK  211  A    between atoms: _500  and  _501
REMARK  212  A    between atoms: _503  and  _505
REMARK  213  A    between atoms: _505  and  _506
REMARK  214  A    between atoms: _505  and  _508
REMARK  215  A    between atoms: _508  and  _509
REMARK  216  A    between atoms: _512  and  _514
REMARK  217  A    between atoms: _514  and  _515
REMARK  218  A    between atoms: _514  and  _517
REMARK  219  A    between atoms: _517  and  _518
REMARK  220  A    between atoms: _520  and  _522
REMARK  221  A    between atoms: _522  and  _523
REMARK  222  A    between atoms: _522  and  _525
REMARK  223  A    between atoms: _525  and  _526
REMARK  224  A    between atoms: _531  and  _532
REMARK  225  A    between atoms: _534  and  _536
REMARK  226  A    between atoms: _536  and  _537
REMARK  227  A    between atoms: _536  and  _539
REMARK  228  A    between atoms: _539  and  _540
REMARK                            x       y       z     vdW  Elec       q    Type
REMARK                         _______ _______ _______ _____ _____    ______ ____
ROOT
ATOM      1  CA  GLU A   5      28.967   4.587   3.793  0.00  0.00    +0.149 C 
ENDROOT
BRANCH   1   2
ATOM      2  C   GLU A   5      29.779   5.513   4.693  0.00  0.00    +0.241 C 
ATOM      3  O   GLU A   5      30.827   5.123   5.206  0.00  0.00    -0.273 OA
ATOM      4  N   LYS A   6      29.291   6.736   4.886  0.00  0.00    -0.297 N 
ATOM      5  H   LYS A   6      28.416   7.018   4.399  0.00  0.00    +0.150 HD
BRANCH   4   6
ATOM      6  CA  LYS A   6      29.957   7.691   5.767  0.00  0.00    +0.149 C 
BRANCH   6   7
ATOM      7  C   LYS A   6      29.905   7.217   7.214  0.00  0.00    +0.241 C 
ATOM      8  O   LYS A   6      30.903   7.271   7.934  0.00  0.00    -0.273 OA
ATOM      9  N   MET A   7      28.732   6.755   7.634  0.00  0.00    -0.297 N 
ATOM     10  H   MET A   7      27.921   6.768   6.983  0.00  0.00    +0.150 HD
BRANCH   9  11
ATOM     11  CA  MET A   7      28.551   6.232   8.980  0.00  0.00    +0.149 C 
BRANCH  11  12
ATOM     12  C   MET A   7      29.396   4.982   9.201  0.00  0.00    +0.241 C 
ATOM     13  O   MET A   7      30.033   4.830  10.244  0.00  0.00    -0.273 OA
ATOM     14  N   VAL A   8      29.399   4.096   8.210  0.00  0.00    -0.298 N 
ATOM     15  H   VAL A   8      28.831   4.289   7.360  0.00  0.00    +0.150 HD
BRANCH  14  16
ATOM     16  CA  VAL A   8      30.174   2.861   8.277  0.00  0.00    +0.137 C 
BRANCH  16  17
ATOM     17  CB  VAL A   8      29.925   1.976   7.034  0.00  0.00    +0.026 C 
ATOM     18  CG2 VAL A   8      28.506   1.426   7.053  0.00  0.00    +0.002 C 
ATOM     19  CG1 VAL A   8      30.944   0.848   6.960  0.00  0.00    +0.002 C 
ENDBRANCH  16  17
BRANCH  16  20
ATOM     20  C   VAL A   8      31.669   3.147   8.416  0.00  0.00    +0.227 C 
ATOM     21  O   VAL A   8      32.354   2.533   9.235  0.00  0.00    -0.286 OA
ENDBRANCH  16  20
ENDBRANCH  14  16
ENDBRANCH  11  12
BRANCH  11  22
ATOM     22  CB  MET A   7      27.071   5.935   9.246  0.00  0.00    +0.041 C 
BRANCH  22  23
ATOM     23  CG  MET A   7      26.205   7.181   9.350  0.00  0.00    +0.060 C 
BRANCH  23  24
ATOM     24  SD  MET A   7      26.714   8.225  10.728  0.00  0.00    -0.139 S 
ATOM     25  CE  MET A   7      25.659   9.644  10.513  0.00  0.00    +0.069 C 
ENDBRANCH  23  24
ENDBRANCH  22  23
ENDBRANCH  11  22
ENDBRANCH   9  11
ENDBRANCH   6   7
BRANCH   6  26
ATOM     26  CB  LYS A   6      29.324   9.079   5.650  0.00  0.00    +0.029 C 
BRANCH  26  27
ATOM     27  CG  LYS A   6      30.100  10.060   4.781  0.00  0.00    +0.000 C 
BRANCH  27  28
ATOM     28  CD  LYS A   6      29.993   9.720   3.307  0.00  0.00    -0.024 C 
BRANCH  28  29
ATOM     29  CE  LYS A   6      30.811  10.689   2.465  0.00  0.00    -0.086 C 
BRANCH  29  30
ATOM     30  NZ  LYS A   6      30.460  12.109   2.752  0.00  0.00    +0.380 N 
ATOM     31  HZ1 LYS A   6      30.643  12.314   3.755  0.00  0.00    -0.089 HD
ATOM     32  HZ2 LYS A   6      29.453  12.265   2.543  0.00  0.00    -0.089 HD
ATOM     33  HZ3 LYS A   6      31.040  12.735   2.158  0.00  0.00    -0.089 HD
ENDBRANCH  29  30
ENDBRANCH  28  29
ENDBRANCH  27  28
ENDBRANCH  26  27
ENDBRANCH   6  26
ENDBRANCH   4   6
ENDBRANCH   1   2
BRANCH   1  36
ATOM     34  C   SER A   4      26.836   4.725   4.967  0.00  0.00    +0.243 C 
ATOM     35  O   SER A   4      27.328   4.321   6.017  0.00  0.00    -0.273 OA
ATOM     36  N   GLU A   5      27.540   4.886   3.850  0.00  0.00    -0.297 N 
ATOM     37  H   GLU A   5      27.061   5.234   2.995  0.00  0.00    +0.150 HD
BRANCH  34  38
ATOM     38  CA  SER A   4      25.360   5.096   4.895  0.00  0.00    +0.178 C 
BRANCH  38  40
ATOM     39  C   ILE A   3      23.873   3.287   4.188  0.00  0.00    +0.241 C 
ATOM     40  N   SER A   4      24.483   3.960   5.161  0.00  0.00    -0.295 N 
ATOM     41  H   SER A   4      24.329   3.666   6.147  0.00  0.00    +0.150 HD
ATOM     42  O   ILE A   3      24.083   3.497   2.989  0.00  0.00    -0.273 OA
BRANCH  39  43
ATOM     43  CA  ILE A   3      22.900   2.192   4.634  0.00  0.00    +0.149 C 
BRANCH  43  45
ATOM     44  C   ASP A   2      24.233   1.130   6.364  0.00  0.00    +0.241 C 
ATOM     45  N   ILE A   3      23.147   1.814   6.019  0.00  0.00    -0.297 N 
ATOM     46  H   ILE A   3      22.460   2.085   6.752  0.00  0.00    +0.150 HD
ATOM     47  O   ASP A   2      25.099   0.803   5.557  0.00  0.00    -0.273 OA
BRANCH  44  48
ATOM     48  CA  ASP A   2      24.366   0.757   7.833  0.00  0.00    +0.160 C 
BRANCH  48  51
ATOM     49  C   SER A   1      24.912  -1.321   8.976  0.00  0.00    +0.241 C 
ATOM     50  O   SER A   1      24.146  -1.078   9.905  0.00  0.00    -0.274 OA
ATOM     51  N   ASP A   2      25.093  -0.500   7.947  0.00  0.00    -0.297 N 
ATOM     52  H   ASP A   2      25.772  -0.762   7.204  0.00  0.00    +0.150 HD
BRANCH  49  53
ATOM     53  CA  SER A   1      25.724  -2.603   8.958  0.00  0.00    +0.174 C 
BRANCH  53  54
ATOM     54  N   SER A   1      25.967  -3.080  10.313  0.00  0.00    -0.236 NA
ATOM     55  H   SER A   1      25.221  -2.985  11.031  0.00  0.00    +0.142 HD
ENDBRANCH  53  54
BRANCH  53  56
ATOM     56  CB  SER A   1      25.013  -3.668   8.118  0.00  0.00    +0.163 C 
BRANCH  56  57
ATOM     57  OG  SER A   1      23.815  -4.093   8.741  0.00  0.00    -0.380 OA
ATOM     58  H   SER A   1      23.208  -3.318   8.850  0.00  0.00    +0.211 HD
ENDBRANCH  56  57
ENDBRANCH  53  56
ENDBRANCH  49  53
ENDBRANCH  48  51
BRANCH  48  59
ATOM     59  CB  ASP A   2      25.095   1.866   8.593  0.00  0.00    +0.143 C 
BRANCH  59  60
ATOM     60  CG  ASP A   2      24.213   3.065   8.864  0.00  0.00    +0.367 C 
ATOM     61  OD2 ASP A   2      23.794   3.243  10.027  0.00  0.00    -0.246 OA
ATOM     62  OD1 ASP A   2      23.945   3.836   7.919  0.00  0.00    -0.246 OA
ENDBRANCH  59  60
ENDBRANCH  48  59
ENDBRANCH  44  48
ENDBRANCH  43  45
BRANCH  43  63
ATOM     63  CB  ILE A   3      21.439   2.655   4.430  0.00  0.00    +0.027 C 
ATOM     64  CG2 ILE A   3      21.229   4.050   5.002  0.00  0.00    +0.002 C 
BRANCH  63  65
ATOM     65  CG1 ILE A   3      21.050   2.595   2.950  0.00  0.00    +0.002 C 
ATOM     66  CD1 ILE A   3      19.561   2.754   2.704  0.00  0.00    +0.000 C 
ENDBRANCH  63  65
ENDBRANCH  43  63
ENDBRANCH  39  43
ENDBRANCH  38  40
BRANCH  38  67
ATOM     67  CB  SER A   4      25.073   6.226   5.889  0.00  0.00    +0.166 C 
BRANCH  67  68
ATOM     68  OG  SER A   4      26.142   7.159   5.928  0.00  0.00    -0.380 OA
ATOM     69  H   SER A   4      26.268   7.553   5.029  0.00  0.00    +0.211 HD
ENDBRANCH  67  68
ENDBRANCH  38  67
ENDBRANCH  34  38
ENDBRANCH   1  36
BRANCH   1  70
ATOM     70  CB  GLU A   5      29.480   4.656   2.350  0.00  0.00    +0.041 C 
BRANCH  70  71
ATOM     71  CG  GLU A   5      29.217   5.982   1.657  0.00  0.00    +0.116 C 
BRANCH  71  72
ATOM     72  CD  GLU A   5      29.605   5.961   0.190  0.00  0.00    +0.365 C 
ATOM     73  OE2 GLU A   5      30.044   4.896  -0.296  0.00  0.00    -0.246 OA
ATOM     74  OE1 GLU A   5      29.470   7.008  -0.477  0.00  0.00    -0.246 OA
ENDBRANCH  71  72
ENDBRANCH  70  71
ENDBRANCH   1  70
TORSDOF 36
REMARK  Name = ../refined-set-2016/4qdk/4qdk_pocket.pdb
REMARK  228 active torsions:
REMARK  status: ('A' for Active; 'I' for Inactive)
REMARK    1  A    between atoms: _1  and  _3
REMARK    2  A    between atoms: _3  and  _4
REMARK    3  A    between atoms: _3  and  _6
REMARK    4  A    between atoms: _6  and  _7
REMARK    5  A    between atoms: _10  and  _12
REMARK    6  A    between atoms: _12  and  _13
REMARK    7  A    between atoms: _12  and  _15
REMARK    8  A    between atoms: _15  and  _16
REMARK    9  A    between atoms: _16  and  _17
REMARK   10  A    between atoms: _17  and  _18
REMARK   11  A    between atoms: _18  and  _19
REMARK   12  A    between atoms: _23  and  _25
REMARK   13  A    between atoms: _25  and  _26
REMARK   14  A    between atoms: _25  and  _28
REMARK   15  A    between atoms: _28  and  _29
REMARK   16  A    between atoms: _32  and  _34
REMARK   17  A    between atoms: _34  and  _35
REMARK   18  A    between atoms: _34  and  _37
REMARK   19  A    between atoms: _40  and  _42
REMARK   20  A    between atoms: _42  and  _43
REMARK   21  A    between atoms: _42  and  _45
REMARK   22  A    between atoms: _45  and  _46
REMARK   23  A    between atoms: _46  and  _47
REMARK   24  A    between atoms: _47  and  _48
REMARK   25  A    between atoms: _57  and  _59
REMARK   26  A    between atoms: _59  and  _60
REMARK   27  A    between atoms: _59  and  _62
REMARK   28  A    between atoms: _62  and  _63
REMARK   29  A    between atoms: _66  and  _68
REMARK   30  A    between atoms: _68  and  _69
REMARK   31  A    between atoms: _68  and  _71
REMARK   32  A    between atoms: _71  and  _72
REMARK   33  A    between atoms: _77  and  _78
REMARK   34  A    between atoms: _80  and  _82
REMARK   35  A    between atoms: _82  and  _83
REMARK   36  A    between atoms: _82  and  _85
REMARK   37  A    between atoms: _85  and  _86
REMARK   38  A    between atoms: _92  and  _94
REMARK   39  A    between atoms: _94  and  _95
REMARK   40  A    between atoms: _94  and  _97
REMARK   41  A    between atoms: _97  and  _98
REMARK   42  A    between atoms: _103  and  _105
REMARK   43  A    between atoms: _105  and  _106
REMARK   44  A    between atoms: _108  and  _110
REMARK   45  A    between atoms: _110  and  _111
REMARK   46  A    between atoms: _110  and  _113
REMARK   47  A    between atoms: _113  and  _114
REMARK   48  A    between atoms: _120  and  _122
REMARK   49  A    between atoms: _122  and  _123
REMARK   50  A    between atoms: _122  and  _125
REMARK   51  A    between atoms: _125  and  _126
REMARK   52  A    between atoms: _136  and  _138
REMARK   53  A    between atoms: _138  and  _139
REMARK   54  A    between atoms: _138  and  _141
REMARK   55  A    between atoms: _141  and  _142
REMARK   56  A    between atoms: _147  and  _148
REMARK   57  A    between atoms: _150  and  _152
REMARK   58  A    between atoms: _152  and  _153
REMARK   59  A    between atoms: _152  and  _155
REMARK   60  A    between atoms: _155  and  _156
REMARK   61  A    between atoms: _161  and  _163
REMARK   62  A    between atoms: _163  and  _164
REMARK   63  A    between atoms: _163  and  _166
REMARK   64  A    between atoms: _166  and  _167
REMARK   65  A    between atoms: _167  and  _168
REMARK   66  A    between atoms: _173  and  _175
REMARK   67  A    between atoms: _175  and  _176
REMARK   68  A    between atoms: _175  and  _178
REMARK   69  A    between atoms: _178  and  _179
REMARK   70  A    between atoms: _182  and  _184
REMARK   71  A    between atoms: _184  and  _185
REMARK   72  A    between atoms: _184  and  _187
REMARK   73  A    between atoms: _190  and  _192
REMARK   74  A    between atoms: _192  and  _193
REMARK   75  A    between atoms: _192  and  _195
REMARK   76  A    between atoms: _195  and  _196
REMARK   77  A    between atoms: _199  and  _201
REMARK   78  A    between atoms: _201  and  _202
REMARK   79  A    between atoms: _205  and  _207
REMARK   80  A    between atoms: _207  and  _208
REMARK   81  A    between atoms: _210  and  _212
REMARK   82  A    between atoms: _212  and  _213
REMARK   83  A    between atoms: _212  and  _215
REMARK   84  A    between atoms: _217  and  _219
REMARK   85  A    between atoms: _219  and  _220
REMARK   86  A    between atoms: _222  and  _224
REMARK   87  A    between atoms: _224  and  _225
REMARK   88  A    between atoms: _224  and  _227
REMARK   89  A    between atoms: _230  and  _232
REMARK   90  A    between atoms: _232  and  _233
REMARK   91  A    between atoms: _235  and  _237
REMARK   92  A    between atoms: _237  and  _238
REMARK   93  A    between atoms: _237  and  _240
REMARK   94  A    between atoms: _240  and  _241
REMARK   95  A    between atoms: _243  and  _245
REMARK   96  A    between atoms: _245  and  _246
REMARK   97  A    between atoms: _245  and  _248
REMARK   98  A    between atoms: _248  and  _249
REMARK   99  A    between atoms: _252  and  _254
REMARK  100  A    between atoms: _254  and  _255
REMARK  101  A    between atoms: _254  and  _257
REMARK  102  A    between atoms: _257  and  _258
REMARK  103  A    between atoms: _260  and  _262
REMARK  104  A    between atoms: _262  and  _263
REMARK  105  A    between atoms: _262  and  _265
REMARK  106  A    between atoms: _265  and  _266
REMARK  107  A    between atoms: _268  and  _270
REMARK  108  A    between atoms: _270  and  _271
REMARK  109  A    between atoms: _270  and  _273
REMARK  110  A    between atoms: _273  and  _274
REMARK  111  A    between atoms: _277  and  _279
REMARK  112  A    between atoms: _279  and  _280
REMARK  113  A    between atoms: _279  and  _282
REMARK  114  A    between atoms: _282  and  _283
REMARK  115  A    between atoms: _286  and  _288
REMARK  116  A    between atoms: _288  and  _289
REMARK  117  A    between atoms: _288  and  _291
REMARK  118  A    between atoms: _291  and  _292
REMARK  119  A    between atoms: _294  and  _296
REMARK  120  A    between atoms: _296  and  _297
REMARK  121  A    between atoms: _296  and  _299
REMARK  122  A    between atoms: _299  and  _300
REMARK  123  A    between atoms: _300  and  _301
REMARK  124  A    between atoms: _304  and  _306
REMARK  125  A    between atoms: _306  and  _307
REMARK  126  A    between atoms: _306  and  _309
REMARK  127  A    between atoms: _309  and  _310
REMARK  128  A    between atoms: _310  and  _311
REMARK  129  A    between atoms: _311  and  _312
REMARK  130  A    between atoms: _312  and  _313
REMARK  131  A    between atoms: _317  and  _319
REMARK  132  A    between atoms: _319  and  _320
REMARK  133  A    between atoms: _319  and  _322
REMARK  134  A    between atoms: _322  and  _323
REMARK  135  A    between atoms: _323  and  _324
REMARK  136  A    between atoms: _326  and  _328
REMARK  137  A    between atoms: _328  and  _329
REMARK  138  A    between atoms: _328  and  _331
REMARK  139  A    between atoms: _334  and  _336
REMARK  140  A    between atoms: _336  and  _337
REMARK  141  A    between atoms: _336  and  _339
REMARK  142  A    between atoms: _339  and  _340
REMARK  143  A    between atoms: _340  and  _341
REMARK  144  A    between atoms: _343  and  _345
REMARK  145  A    between atoms: _345  and  _346
REMARK  146  A    between atoms: _345  and  _348
REMARK  147  A    between atoms: _348  and  _349
REMARK  148  A    between atoms: _352  and  _354
REMARK  149  A    between atoms: _354  and  _355
REMARK  150  A    between atoms: _354  and  _357
REMARK  151  A    between atoms: _357  and  _358
REMARK  152  A    between atoms: _358  and  _359
REMARK  153  A    between atoms: _364  and  _366
REMARK  154  A    between atoms: _366  and  _367
REMARK  155  A    between atoms: _366  and  _369
REMARK  156  A    between atoms: _369  and  _370
REMARK  157  A    between atoms: _373  and  _375
REMARK  158  A    between atoms: _375  and  _376
REMARK  159  A    between atoms: _375  and  _378
REMARK  160  A    between atoms: _378  and  _379
REMARK  161  A    between atoms: _382  and  _384
REMARK  162  A    between atoms: _384  and  _385
REMARK  163  A    between atoms: _388  and  _390
REMARK  164  A    between atoms: _390  and  _391
REMARK  165  A    between atoms: _390  and  _393
REMARK  166  A    between atoms: _393  and  _394
REMARK  167  A    between atoms: _394  and  _395
REMARK  168  A    between atoms: _400  and  _402
REMARK  169  A    between atoms: _402  and  _403
REMARK  170  A    between atoms: _402  and  _405
REMARK  171  A    between atoms: _405  and  _406
REMARK  172  A    between atoms: _409  and  _411
REMARK  173  A    between atoms: _411  and  _412
REMARK  174  A    between atoms: _411  and  _414
REMARK  175  A    between atoms: _414  and  _415
REMARK  176  A    between atoms: _418  and  _420
REMARK  177  A    between atoms: _420  and  _421
REMARK  178  A    between atoms: _420  and  _423
REMARK  179  A    between atoms: _425  and  _427
REMARK  180  A    between atoms: _427  and  _428
REMARK  181  A    between atoms: _427  and  _430
REMARK  182  A    between atoms: _430  and  _431
REMARK  183  A    between atoms: _434  and  _436
REMARK  184  A    between atoms: _436  and  _437
REMARK  185  A    between atoms: _436  and  _439
REMARK  186  A    between atoms: _439  and  _440
REMARK  187  A    between atoms: _443  and  _445
REMARK  188  A    between atoms: _445  and  _446
REMARK  189  A    between atoms: _445  and  _448
REMARK  190  A    between atoms: _451  and  _453
REMARK  191  A    between atoms: _453  and  _454
REMARK  192  A    between atoms: _453  and  _456
REMARK  193  A    between atoms: _456  and  _457
REMARK  194  A    between atoms: _460  and  _462
REMARK  195  A    between atoms: _462  and  _463
REMARK  196  A    between atoms: _462  and  _465
REMARK  197  A    between atoms: _465  and  _466
REMARK  198  A    between atoms: _469  and  _471
REMARK  199  A    between atoms: _471  and  _472
REMARK  200  A    between atoms: _471  and  _474
REMARK  201  A    between atoms: _474  and  _475
REMARK  202  A    between atoms: _480  and  _482
REMARK  203  A    between atoms: _482  and  _483
REMARK  204  A    between atoms: _482  and  _485
REMARK  205  A    between atoms: _485  and  _486
REMARK  206  A    between atoms: _491  and  _492
REMARK  207  A    between atoms: _494  and  _496
REMARK  208  A    between atoms: _496  and  _497
REMARK  209  A    between atoms: _496  and  _499
REMARK  210  A    between atoms: _499  and  _500
REMARK  211  A    between atoms: _500  and  _501
REMARK  212  A    between atoms: _503  and  _505
REMARK  213  A    between atoms: _505  and  _506
REMARK  214  A    between atoms: _505  and  _508
REMARK  215  A    between atoms: _508  and  _509
REMARK  216  A    between atoms: _512  and  _514
REMARK  217  A    between atoms: _514  and  _515
REMARK  218  A    between atoms: _514  and  _517
REMARK  219  A    between atoms: _517  and  _518
REMARK  220  A    between atoms: _520  and  _522
REMARK  221  A    between atoms: _522  and  _523
REMARK  222  A    between atoms: _522  and  _525
REMARK  223  A    between atoms: _525  and  _526
REMARK  224  A    between atoms: _531  and  _532
REMARK  225  A    between atoms: _534  and  _536
REMARK  226  A    between atoms: _536  and  _537
REMARK  227  A    between atoms: _536  and  _539
REMARK  228  A    between atoms: _539  and  _540
REMARK                            x       y       z     vdW  Elec       q    Type
REMARK                         _______ _______ _______ _____ _____    ______ ____
ROOT
ATOM      1  C   ASP A   4      19.991  -2.741   4.219  0.00  0.00    +0.241 C 
ATOM      2  N   LEU A   5      19.460  -2.506   5.417  0.00  0.00    -0.297 N 
ATOM      3  H   LEU A   5      19.311  -1.524   5.726  0.00  0.00    +0.150 HD
ATOM      4  O   ASP A   4      20.140  -3.876   3.768  0.00  0.00    -0.273 OA
ENDROOT
BRANCH   1   5
ATOM      5  CA  ASP A   4      20.439  -1.525   3.412  0.00  0.00    +0.160 C 
BRANCH   5   8
ATOM      6  C   GLN A   3      22.811  -1.765   3.918  0.00  0.00    +0.241 C 
ATOM      7  O   GLN A   3      22.679  -1.387   5.081  0.00  0.00    -0.273 OA
ATOM      8  N   ASP A   4      21.824  -1.746   3.029  0.00  0.00    -0.297 N 
ATOM      9  H   ASP A   4      22.050  -1.894   2.025  0.00  0.00    +0.150 HD
BRANCH   6  10
ATOM     10  CA  GLN A   3      24.157  -2.269   3.413  0.00  0.00    +0.149 C 
BRANCH  10  12
ATOM     11  C   THR A   2      26.461  -1.522   3.328  0.00  0.00    +0.243 C 
ATOM     12  N   GLN A   3      25.256  -1.440   3.882  0.00  0.00    -0.297 N 
ATOM     13  H   GLN A   3      25.096  -0.772   4.663  0.00  0.00    +0.150 HD
ATOM     14  O   THR A   2      26.697  -2.221   2.342  0.00  0.00    -0.273 OA
BRANCH  11  15
ATOM     15  CA  THR A   2      27.568  -0.706   3.984  0.00  0.00    +0.176 C 
BRANCH  15  18
ATOM     16  C   MET A   1      28.432  -2.197   5.694  0.00  0.00    +0.238 C 
ATOM     17  O   MET A   1      27.493  -1.940   6.445  0.00  0.00    -0.274 OA
ATOM     18  N   THR A   2      28.587  -1.608   4.513  0.00  0.00    -0.295 N 
ATOM     19  H   THR A   2      29.447  -1.792   3.957  0.00  0.00    +0.150 HD
BRANCH  16  20
ATOM     20  CA  MET A   1      29.490  -3.219   6.099  0.00  0.00    +0.146 C 
BRANCH  20  21
ATOM     21  N   MET A   1      29.817  -3.080   7.510  0.00  0.00    -0.238 NA
ATOM     22  H   MET A   1      29.095  -2.709   8.160  0.00  0.00    +0.142 HD
ENDBRANCH  20  21
BRANCH  20  23
ATOM     23  CB  MET A   1      28.976  -4.636   5.836  0.00  0.00    +0.038 C 
BRANCH  23  24
ATOM     24  CG  MET A   1      28.570  -4.920   4.405  0.00  0.00    +0.060 C 
BRANCH  24  25
ATOM     25  SD  MET A   1      27.913  -6.590   4.232  0.00  0.00    -0.139 S 
ATOM     26  CE  MET A   1      26.416  -6.478   5.209  0.00  0.00    +0.069 C 
ENDBRANCH  24  25
ENDBRANCH  23  24
ENDBRANCH  20  23
ENDBRANCH  16  20
ENDBRANCH  15  18
BRANCH  15  27
ATOM     27  CB  THR A   2      28.153   0.285   2.964  0.00  0.00    +0.137 C 
ATOM     28  CG2 THR A   2      27.046   1.141   2.356  0.00  0.00    +0.034 C 
BRANCH  27  29
ATOM     29  OG1 THR A   2      29.102   1.137   3.616  0.00  0.00    -0.382 OA
ATOM     30  HG1 THR A   2      29.478   1.774   2.958  0.00  0.00    +0.210 HD
ENDBRANCH  27  29
ENDBRANCH  15  27
ENDBRANCH  11  15
ENDBRANCH  10  12
BRANCH  10  31
ATOM     31  CB  GLN A   3      24.363  -3.713   3.879  0.00  0.00    +0.039 C 
BRANCH  31  32
ATOM     32  CG  GLN A   3      23.335  -4.706   3.364  0.00  0.00    +0.087 C 
BRANCH  32  33
ATOM     33  CD  GLN A   3      23.631  -5.182   1.957  0.00  0.00    +0.219 C 
ATOM     34  NE2 GLN A   3      23.806  -6.491   1.800  0.00  0.00    -0.329 N 
ATOM     35 HE21 GLN A   3      23.738  -7.127   2.620  0.00  0.00    +0.145 HD
ATOM     36 HE22 GLN A   3      24.011  -6.879   0.857  0.00  0.00    +0.145 HD
ATOM     37  OE1 GLN A   3      23.701  -4.385   1.020  0.00  0.00    -0.275 OA
ENDBRANCH  32  33
ENDBRANCH  31  32
ENDBRANCH  10  31
ENDBRANCH   6  10
ENDBRANCH   5   8
BRANCH   5  38
ATOM     38  CB  ASP A   4      19.587  -1.351   2.149  0.00  0.00    +0.143 C 
BRANCH  38  39
ATOM     39  CG  ASP A   4      18.097  -1.274   2.435  0.00  0.00    +0.367 C 
ATOM     40  OD2 ASP A   4      17.700  -0.958   3.577  0.00  0.00    -0.246 OA
ATOM     41  OD1 ASP A   4      17.315  -1.520   1.490  0.00  0.00    -0.246 OA
ENDBRANCH  38  39
ENDBRANCH   5  38
ENDBRANCH   1   5
BRANCH   2  42
ATOM     42  CA  LEU A   5      19.082  -3.605   6.306  0.00  0.00    +0.149 C 
BRANCH  42  43
ATOM     43  C   LEU A   5      18.059  -4.547   5.671  0.00  0.00    +0.241 C 
ATOM     44  O   LEU A   5      17.974  -5.715   6.036  0.00  0.00    -0.273 OA
ATOM     45  N   ALA A   6      17.288  -4.036   4.716  0.00  0.00    -0.297 N 
ATOM     46  H   ALA A   6      17.397  -3.035   4.454  0.00  0.00    +0.150 HD
BRANCH  45  47
ATOM     47  CA  ALA A   6      16.292  -4.850   4.028  0.00  0.00    +0.149 C 
ATOM     48  CB  ALA A   6      15.374  -3.973   3.201  0.00  0.00    +0.031 C 
BRANCH  47  49
ATOM     49  C   ALA A   6      16.941  -5.920   3.150  0.00  0.00    +0.241 C 
ATOM     50  N   GLN A   7      18.221  -5.735   2.840  0.00  0.00    -0.297 N 
ATOM     51  H   GLN A   7      18.719  -4.904   3.217  0.00  0.00    +0.150 HD
ATOM     52  O   ALA A   6      16.295  -6.892   2.763  0.00  0.00    -0.273 OA
BRANCH  50  53
ATOM     53  CA  GLN A   7      18.944  -6.669   1.984  0.00  0.00    +0.149 C 
BRANCH  53  54
ATOM     54  C   GLN A   7      19.933  -7.512   2.784  0.00  0.00    +0.241 C 
ATOM     55  N   LEU A   8      19.913  -7.335   4.101  0.00  0.00    -0.298 N 
ATOM     56  H   LEU A   8      19.245  -6.646   4.502  0.00  0.00    +0.150 HD
ATOM     57  O   GLN A   7      20.691  -8.300   2.221  0.00  0.00    -0.273 OA
BRANCH  55  58
ATOM     58  CA  LEU A   8      20.791  -8.068   5.007  0.00  0.00    +0.137 C 
BRANCH  58  59
ATOM     59  C   LEU A   8      20.492  -9.566   4.975  0.00  0.00    +0.227 C 
ATOM     60  O   LEU A   8      19.337  -9.973   4.864  0.00  0.00    -0.286 OA
ENDBRANCH  58  59
BRANCH  58  61
ATOM     61  CB  LEU A   8      20.602  -7.533   6.427  0.00  0.00    +0.028 C 
BRANCH  61  62
ATOM     62  CG  LEU A   8      21.802  -7.209   7.314  0.00  0.00    +0.002 C 
ATOM     63  CD2 LEU A   8      21.330  -6.345   8.468  0.00  0.00    +0.000 C 
ATOM     64  CD1 LEU A   8      22.898  -6.500   6.543  0.00  0.00    +0.000 C 
ENDBRANCH  61  62
ENDBRANCH  58  61
ENDBRANCH  55  58
ENDBRANCH  53  54
BRANCH  53  65
ATOM     65  CB  GLN A   7      19.670  -5.910   0.871  0.00  0.00    +0.039 C 
BRANCH  65  66
ATOM     66  CG  GLN A   7      18.744  -5.088  -0.011  0.00  0.00    +0.087 C 
BRANCH  66  67
ATOM     67  CD  GLN A   7      19.493  -4.233  -1.011  0.00  0.00    +0.219 C 
ATOM     68  OE1 GLN A   7      20.724  -4.200  -1.019  0.00  0.00    -0.275 OA
ATOM     69  NE2 GLN A   7      18.752  -3.534  -1.863  0.00  0.00    -0.329 N 
ATOM     70 HE21 GLN A   7      17.715  -3.593  -1.819  0.00  0.00    +0.145 HD
ATOM     71 HE22 GLN A   7      19.209  -2.928  -2.574  0.00  0.00    +0.145 HD
ENDBRANCH  66  67
ENDBRANCH  65  66
ENDBRANCH  53  65
ENDBRANCH  50  53
ENDBRANCH  47  49
ENDBRANCH  45  47
ENDBRANCH  42  43
BRANCH  42  72
ATOM     72  CB  LEU A   5      18.584  -3.081   7.665  0.00  0.00    +0.029 C 
BRANCH  72  73
ATOM     73  CG  LEU A   5      17.346  -2.180   7.730  0.00  0.00    +0.002 C 
ATOM     74  CD2 LEU A   5      17.442  -1.227   8.914  0.00  0.00    +0.000 C 
ATOM     75  CD1 LEU A   5      16.055  -2.990   7.802  0.00  0.00    +0.000 C 
ENDBRANCH  72  73
ENDBRANCH  42  72
ENDBRANCH   2  42
TORSDOF 33
REMARK  Name = ../refined-set-2016/4qdk/4qdk_pocket.pdb
REMARK  228 active torsions:
REMARK  status: ('A' for Active; 'I' for Inactive)
REMARK    1  A    between atoms: _1  and  _3
REMARK    2  A    between atoms: _3  and  _4
REMARK    3  A    between atoms: _3  and  _6
REMARK    4  A    between atoms: _6  and  _7
REMARK    5  A    between atoms: _10  and  _12
REMARK    6  A    between atoms: _12  and  _13
REMARK    7  A    between atoms: _12  and  _15
REMARK    8  A    between atoms: _15  and  _16
REMARK    9  A    between atoms: _16  and  _17
REMARK   10  A    between atoms: _17  and  _18
REMARK   11  A    between atoms: _18  and  _19
REMARK   12  A    between atoms: _23  and  _25
REMARK   13  A    between atoms: _25  and  _26
REMARK   14  A    between atoms: _25  and  _28
REMARK   15  A    between atoms: _28  and  _29
REMARK   16  A    between atoms: _32  and  _34
REMARK   17  A    between atoms: _34  and  _35
REMARK   18  A    between atoms: _34  and  _37
REMARK   19  A    between atoms: _40  and  _42
REMARK   20  A    between atoms: _42  and  _43
REMARK   21  A    between atoms: _42  and  _45
REMARK   22  A    between atoms: _45  and  _46
REMARK   23  A    between atoms: _46  and  _47
REMARK   24  A    between atoms: _47  and  _48
REMARK   25  A    between atoms: _57  and  _59
REMARK   26  A    between atoms: _59  and  _60
REMARK   27  A    between atoms: _59  and  _62
REMARK   28  A    between atoms: _62  and  _63
REMARK   29  A    between atoms: _66  and  _68
REMARK   30  A    between atoms: _68  and  _69
REMARK   31  A    between atoms: _68  and  _71
REMARK   32  A    between atoms: _71  and  _72
REMARK   33  A    between atoms: _77  and  _78
REMARK   34  A    between atoms: _80  and  _82
REMARK   35  A    between atoms: _82  and  _83
REMARK   36  A    between atoms: _82  and  _85
REMARK   37  A    between atoms: _85  and  _86
REMARK   38  A    between atoms: _92  and  _94
REMARK   39  A    between atoms: _94  and  _95
REMARK   40  A    between atoms: _94  and  _97
REMARK   41  A    between atoms: _97  and  _98
REMARK   42  A    between atoms: _103  and  _105
REMARK   43  A    between atoms: _105  and  _106
REMARK   44  A    between atoms: _108  and  _110
REMARK   45  A    between atoms: _110  and  _111
REMARK   46  A    between atoms: _110  and  _113
REMARK   47  A    between atoms: _113  and  _114
REMARK   48  A    between atoms: _120  and  _122
REMARK   49  A    between atoms: _122  and  _123
REMARK   50  A    between atoms: _122  and  _125
REMARK   51  A    between atoms: _125  and  _126
REMARK   52  A    between atoms: _136  and  _138
REMARK   53  A    between atoms: _138  and  _139
REMARK   54  A    between atoms: _138  and  _141
REMARK   55  A    between atoms: _141  and  _142
REMARK   56  A    between atoms: _147  and  _148
REMARK   57  A    between atoms: _150  and  _152
REMARK   58  A    between atoms: _152  and  _153
REMARK   59  A    between atoms: _152  and  _155
REMARK   60  A    between atoms: _155  and  _156
REMARK   61  A    between atoms: _161  and  _163
REMARK   62  A    between atoms: _163  and  _164
REMARK   63  A    between atoms: _163  and  _166
REMARK   64  A    between atoms: _166  and  _167
REMARK   65  A    between atoms: _167  and  _168
REMARK   66  A    between atoms: _173  and  _175
REMARK   67  A    between atoms: _175  and  _176
REMARK   68  A    between atoms: _175  and  _178
REMARK   69  A    between atoms: _178  and  _179
REMARK   70  A    between atoms: _182  and  _184
REMARK   71  A    between atoms: _184  and  _185
REMARK   72  A    between atoms: _184  and  _187
REMARK   73  A    between atoms: _190  and  _192
REMARK   74  A    between atoms: _192  and  _193
REMARK   75  A    between atoms: _192  and  _195
REMARK   76  A    between atoms: _195  and  _196
REMARK   77  A    between atoms: _199  and  _201
REMARK   78  A    between atoms: _201  and  _202
REMARK   79  A    between atoms: _205  and  _207
REMARK   80  A    between atoms: _207  and  _208
REMARK   81  A    between atoms: _210  and  _212
REMARK   82  A    between atoms: _212  and  _213
REMARK   83  A    between atoms: _212  and  _215
REMARK   84  A    between atoms: _217  and  _219
REMARK   85  A    between atoms: _219  and  _220
REMARK   86  A    between atoms: _222  and  _224
REMARK   87  A    between atoms: _224  and  _225
REMARK   88  A    between atoms: _224  and  _227
REMARK   89  A    between atoms: _230  and  _232
REMARK   90  A    between atoms: _232  and  _233
REMARK   91  A    between atoms: _235  and  _237
REMARK   92  A    between atoms: _237  and  _238
REMARK   93  A    between atoms: _237  and  _240
REMARK   94  A    between atoms: _240  and  _241
REMARK   95  A    between atoms: _243  and  _245
REMARK   96  A    between atoms: _245  and  _246
REMARK   97  A    between atoms: _245  and  _248
REMARK   98  A    between atoms: _248  and  _249
REMARK   99  A    between atoms: _252  and  _254
REMARK  100  A    between atoms: _254  and  _255
REMARK  101  A    between atoms: _254  and  _257
REMARK  102  A    between atoms: _257  and  _258
REMARK  103  A    between atoms: _260  and  _262
REMARK  104  A    between atoms: _262  and  _263
REMARK  105  A    between atoms: _262  and  _265
REMARK  106  A    between atoms: _265  and  _266
REMARK  107  A    between atoms: _268  and  _270
REMARK  108  A    between atoms: _270  and  _271
REMARK  109  A    between atoms: _270  and  _273
REMARK  110  A    between atoms: _273  and  _274
REMARK  111  A    between atoms: _277  and  _279
REMARK  112  A    between atoms: _279  and  _280
REMARK  113  A    between atoms: _279  and  _282
REMARK  114  A    between atoms: _282  and  _283
REMARK  115  A    between atoms: _286  and  _288
REMARK  116  A    between atoms: _288  and  _289
REMARK  117  A    between atoms: _288  and  _291
REMARK  118  A    between atoms: _291  and  _292
REMARK  119  A    between atoms: _294  and  _296
REMARK  120  A    between atoms: _296  and  _297
REMARK  121  A    between atoms: _296  and  _299
REMARK  122  A    between atoms: _299  and  _300
REMARK  123  A    between atoms: _300  and  _301
REMARK  124  A    between atoms: _304  and  _306
REMARK  125  A    between atoms: _306  and  _307
REMARK  126  A    between atoms: _306  and  _309
REMARK  127  A    between atoms: _309  and  _310
REMARK  128  A    between atoms: _310  and  _311
REMARK  129  A    between atoms: _311  and  _312
REMARK  130  A    between atoms: _312  and  _313
REMARK  131  A    between atoms: _317  and  _319
REMARK  132  A    between atoms: _319  and  _320
REMARK  133  A    between atoms: _319  and  _322
REMARK  134  A    between atoms: _322  and  _323
REMARK  135  A    between atoms: _323  and  _324
REMARK  136  A    between atoms: _326  and  _328
REMARK  137  A    between atoms: _328  and  _329
REMARK  138  A    between atoms: _328  and  _331
REMARK  139  A    between atoms: _334  and  _336
REMARK  140  A    between atoms: _336  and  _337
REMARK  141  A    between atoms: _336  and  _339
REMARK  142  A    between atoms: _339  and  _340
REMARK  143  A    between atoms: _340  and  _341
REMARK  144  A    between atoms: _343  and  _345
REMARK  145  A    between atoms: _345  and  _346
REMARK  146  A    between atoms: _345  and  _348
REMARK  147  A    between atoms: _348  and  _349
REMARK  148  A    between atoms: _352  and  _354
REMARK  149  A    between atoms: _354  and  _355
REMARK  150  A    between atoms: _354  and  _357
REMARK  151  A    between atoms: _357  and  _358
REMARK  152  A    between atoms: _358  and  _359
REMARK  153  A    between atoms: _364  and  _366
REMARK  154  A    between atoms: _366  and  _367
REMARK  155  A    between atoms: _366  and  _369
REMARK  156  A    between atoms: _369  and  _370
REMARK  157  A    between atoms: _373  and  _375
REMARK  158  A    between atoms: _375  and  _376
REMARK  159  A    between atoms: _375  and  _378
REMARK  160  A    between atoms: _378  and  _379
REMARK  161  A    between atoms: _382  and  _384
REMARK  162  A    between atoms: _384  and  _385
REMARK  163  A    between atoms: _388  and  _390
REMARK  164  A    between atoms: _390  and  _391
REMARK  165  A    between atoms: _390  and  _393
REMARK  166  A    between atoms: _393  and  _394
REMARK  167  A    between atoms: _394  and  _395
REMARK  168  A    between atoms: _400  and  _402
REMARK  169  A    between atoms: _402  and  _403
REMARK  170  A    between atoms: _402  and  _405
REMARK  171  A    between atoms: _405  and  _406
REMARK  172  A    between atoms: _409  and  _411
REMARK  173  A    between atoms: _411  and  _412
REMARK  174  A    between atoms: _411  and  _414
REMARK  175  A    between atoms: _414  and  _415
REMARK  176  A    between atoms: _418  and  _420
REMARK  177  A    between atoms: _420  and  _421
REMARK  178  A    between atoms: _420  and  _423
REMARK  179  A    between atoms: _425  and  _427
REMARK  180  A    between atoms: _427  and  _428
REMARK  181  A    between atoms: _427  and  _430
REMARK  182  A    between atoms: _430  and  _431
REMARK  183  A    between atoms: _434  and  _436
REMARK  184  A    between atoms: _436  and  _437
REMARK  185  A    between atoms: _436  and  _439
REMARK  186  A    between atoms: _439  and  _440
REMARK  187  A    between atoms: _443  and  _445
REMARK  188  A    between atoms: _445  and  _446
REMARK  189  A    between atoms: _445  and  _448
REMARK  190  A    between atoms: _451  and  _453
REMARK  191  A    between atoms: _453  and  _454
REMARK  192  A    between atoms: _453  and  _456
REMARK  193  A    between atoms: _456  and  _457
REMARK  194  A    between atoms: _460  and  _462
REMARK  195  A    between atoms: _462  and  _463
REMARK  196  A    between atoms: _462  and  _465
REMARK  197  A    between atoms: _465  and  _466
REMARK  198  A    between atoms: _469  and  _471
REMARK  199  A    between atoms: _471  and  _472
REMARK  200  A    between atoms: _471  and  _474
REMARK  201  A    between atoms: _474  and  _475
REMARK  202  A    between atoms: _480  and  _482
REMARK  203  A    between atoms: _482  and  _483
REMARK  204  A    between atoms: _482  and  _485
REMARK  205  A    between atoms: _485  and  _486
REMARK  206  A    between atoms: _491  and  _492
REMARK  207  A    between atoms: _494  and  _496
REMARK  208  A    between atoms: _496  and  _497
REMARK  209  A    between atoms: _496  and  _499
REMARK  210  A    between atoms: _499  and  _500
REMARK  211  A    between atoms: _500  and  _501
REMARK  212  A    between atoms: _503  and  _505
REMARK  213  A    between atoms: _505  and  _506
REMARK  214  A    between atoms: _505  and  _508
REMARK  215  A    between atoms: _508  and  _509
REMARK  216  A    between atoms: _512  and  _514
REMARK  217  A    between atoms: _514  and  _515
REMARK  218  A    between atoms: _514  and  _517
REMARK  219  A    between atoms: _517  and  _518
REMARK  220  A    between atoms: _520  and  _522
REMARK  221  A    between atoms: _522  and  _523
REMARK  222  A    between atoms: _522  and  _525
REMARK  223  A    between atoms: _525  and  _526
REMARK  224  A    between atoms: _531  and  _532
REMARK  225  A    between atoms: _534  and  _536
REMARK  226  A    between atoms: _536  and  _537
REMARK  227  A    between atoms: _536  and  _539
REMARK  228  A    between atoms: _539  and  _540
REMARK                            x       y       z     vdW  Elec       q    Type
REMARK                         _______ _______ _______ _____ _____    ______ ____
ROOT
ATOM      1  C   VAL A   5      14.957   3.875  12.294  0.00  0.00    +0.241 C 
ATOM      2  N   LEU A   6      14.012   3.215  12.958  0.00  0.00    -0.297 N 
ATOM      3  H   LEU A   6      14.267   2.712  13.832  0.00  0.00    +0.150 HD
ATOM      4  O   VAL A   5      14.720   4.577  11.304  0.00  0.00    -0.273 OA
ENDROOT
BRANCH   2   5
ATOM      5  CA  LEU A   6      12.625   3.175  12.496  0.00  0.00    +0.149 C 
BRANCH   5   6
ATOM      6  C   LEU A   6      11.937   4.541  12.458  0.00  0.00    +0.241 C 
ATOM      7  N   ILE A   7      12.450   5.497  13.226  0.00  0.00    -0.297 N 
ATOM      8  H   ILE A   7      13.274   5.279  13.822  0.00  0.00    +0.150 HD
ATOM      9  O   LEU A   6      10.958   4.726  11.732  0.00  0.00    -0.273 OA
BRANCH   7  10
ATOM     10  CA  ILE A   7      11.889   6.844  13.257  0.00  0.00    +0.149 C 
BRANCH  10  11
ATOM     11  C   ILE A   7      11.928   7.505  11.869  0.00  0.00    +0.241 C 
ATOM     12  O   ILE A   7      11.151   8.418  11.581  0.00  0.00    -0.273 OA
ATOM     13  N   HIS A   8      12.830   7.032  11.013  0.00  0.00    -0.297 N 
ATOM     14  H   HIS A   8      13.428   6.231  11.299  0.00  0.00    +0.150 HD
BRANCH  13  15
ATOM     15  CA  HIS A   8      13.002   7.610   9.681  0.00  0.00    +0.155 C 
BRANCH  15  16
ATOM     16  C   HIS A   8      12.064   7.021   8.629  0.00  0.00    +0.241 C 
ATOM     17  N   TYR A   9      11.153   6.150   9.055  0.00  0.00    -0.298 N 
ATOM     18  H   TYR A   9      11.089   5.931  10.070  0.00  0.00    +0.150 HD
ATOM     19  O   HIS A   8      12.165   7.352   7.446  0.00  0.00    -0.273 OA
BRANCH  17  20
ATOM     20  CA  TYR A   9      10.242   5.496   8.119  0.00  0.00    +0.141 C 
BRANCH  20  21
ATOM     21  C   TYR A   9       8.811   5.441   8.646  0.00  0.00    +0.227 C 
ATOM     22  O   TYR A   9       8.599   5.251   9.839  0.00  0.00    -0.286 OA
ENDBRANCH  20  21
BRANCH  20  23
ATOM     23  CB  TYR A   9      10.739   4.082   7.805  0.00  0.00    +0.054 C 
BRANCH  23  24
ATOM     24  CG  TYR A   9      12.122   4.047   7.193  0.00  0.00    -0.020 A 
ATOM     25  CD2 TYR A   9      13.256   3.942   7.993  0.00  0.00    -0.001 A 
ATOM     26  CE2 TYR A   9      14.523   3.913   7.434  0.00  0.00    +0.036 A 
ATOM     27  CZ  TYR A   9      14.667   3.989   6.065  0.00  0.00    +0.134 A 
ATOM     28  CE1 TYR A   9      13.557   4.095   5.253  0.00  0.00    +0.036 A 
ATOM     29  CD1 TYR A   9      12.296   4.125   5.817  0.00  0.00    -0.001 A 
BRANCH  27  30
ATOM     30  OH  TYR A   9      15.925   3.959   5.504  0.00  0.00    -0.506 OA
ATOM     31  HH  TYR A   9      16.373   3.110   5.747  0.00  0.00    +0.292 HD
ENDBRANCH  27  30
ENDBRANCH  23  24
ENDBRANCH  20  23
ENDBRANCH  17  20
ENDBRANCH  15  16
BRANCH  15  32
ATOM     32  CB  HIS A   8      14.453   7.450   9.222  0.00  0.00    +0.076 C 
BRANCH  32  33
ATOM     33  CG  HIS A   8      15.448   8.078  10.145  0.00  0.00    +0.082 A 
ATOM     34  CD2 HIS A   8      16.363   7.526  10.979  0.00  0.00    +0.115 A 
ATOM     35  NE2 HIS A   8      17.018   8.559  11.600  0.00  0.00    -0.221 NA
ATOM     36  CE1 HIS A   8      16.525   9.705  11.168  0.00  0.00    +0.199 A 
ATOM     37  ND1 HIS A   8      15.573   9.441  10.289  0.00  0.00    -0.227 NA
ENDBRANCH  32  33
ENDBRANCH  15  32
ENDBRANCH  13  15
ENDBRANCH  10  11
BRANCH  10  38
ATOM     38  CB  ILE A   7      12.620   7.720  14.307  0.00  0.00    +0.027 C 
ATOM     39  CG2 ILE A   7      14.078   7.933  13.914  0.00  0.00    +0.002 C 
BRANCH  38  40
ATOM     40  CG1 ILE A   7      11.899   9.053  14.517  0.00  0.00    +0.002 C 
ATOM     41  CD1 ILE A   7      12.481   9.884  15.640  0.00  0.00    +0.000 C 
ENDBRANCH  38  40
ENDBRANCH  10  38
ENDBRANCH   7  10
ENDBRANCH   5   6
BRANCH   5  42
ATOM     42  CB  LEU A   6      11.811   2.189  13.340  0.00  0.00    +0.029 C 
BRANCH  42  43
ATOM     43  CG  LEU A   6      12.226   0.723  13.186  0.00  0.00    +0.002 C 
ATOM     44  CD2 LEU A   6      11.461  -0.161  14.152  0.00  0.00    +0.000 C 
ATOM     45  CD1 LEU A   6      12.019   0.256  11.752  0.00  0.00    +0.000 C 
ENDBRANCH  42  43
ENDBRANCH   5  42
ENDBRANCH   2   5
BRANCH   1  46
ATOM     46  CA  VAL A   5      16.377   3.725  12.836  0.00  0.00    +0.149 C 
BRANCH  46  49
ATOM     47  C   ASP A   4      16.865   4.734  15.007  0.00  0.00    +0.241 C 
ATOM     48  O   ASP A   4      17.380   5.733  14.496  0.00  0.00    -0.273 OA
ATOM     49  N   VAL A   5      16.374   3.724  14.295  0.00  0.00    -0.297 N 
ATOM     50  H   VAL A   5      15.974   2.905  14.796  0.00  0.00    +0.150 HD
BRANCH  47  51
ATOM     51  CA  ASP A   4      16.752   4.601  16.528  0.00  0.00    +0.160 C 
BRANCH  51  53
ATOM     52  C   LEU A   3      17.995   2.489  16.738  0.00  0.00    +0.241 C 
ATOM     53  N   ASP A   4      16.928   3.233  17.021  0.00  0.00    -0.297 N 
ATOM     54  H   ASP A   4      16.184   2.823  17.621  0.00  0.00    +0.150 HD
ATOM     55  O   LEU A   3      18.877   2.835  15.947  0.00  0.00    -0.273 OA
BRANCH  52  56
ATOM     56  CA  LEU A   3      18.079   1.150  17.470  0.00  0.00    +0.149 C 
BRANCH  56  59
ATOM     57  C   CYS A   2      17.411  -0.864  16.263  0.00  0.00    +0.242 C 
ATOM     58  O   CYS A   2      16.240  -0.762  16.635  0.00  0.00    -0.273 OA
ATOM     59  N   LEU A   3      18.352   0.022  16.581  0.00  0.00    -0.297 N 
ATOM     60  H   LEU A   3      19.307  -0.091  16.186  0.00  0.00    +0.150 HD
BRANCH  57  61
ATOM     61  CA  CYS A   2      17.852  -2.042  15.400  0.00  0.00    +0.160 C 
BRANCH  61  63
ATOM     62  C   ILE A   1      19.135  -4.002  16.062  0.00  0.00    +0.238 C 
ATOM     63  N   CYS A   2      18.083  -3.211  16.235  0.00  0.00    -0.297 N 
ATOM     64  H   CYS A   2      17.403  -3.434  16.990  0.00  0.00    +0.150 HD
ATOM     65  O   ILE A   1      19.966  -3.828  15.173  0.00  0.00    -0.274 OA
BRANCH  62  66
ATOM     66  CA  ILE A   1      19.264  -5.165  17.041  0.00  0.00    +0.145 C 
BRANCH  66  67
ATOM     67  N   ILE A   1      19.572  -6.416  16.362  0.00  0.00    -0.238 NA
ATOM     68  H   ILE A   1      20.382  -6.458  15.712  0.00  0.00    +0.142 HD
ENDBRANCH  66  67
BRANCH  66  69
ATOM     69  CB  ILE A   1      20.338  -4.826  18.100  0.00  0.00    +0.025 C 
ATOM     70  CG2 ILE A   1      19.937  -3.586  18.877  0.00  0.00    +0.002 C 
BRANCH  69  71
ATOM     71  CG1 ILE A   1      20.545  -6.012  19.046  0.00  0.00    +0.002 C 
ATOM     72  CD1 ILE A   1      21.626  -5.790  20.087  0.00  0.00    +0.000 C 
ENDBRANCH  69  71
ENDBRANCH  66  69
ENDBRANCH  62  66
ENDBRANCH  61  63
BRANCH  61  73
ATOM     73  CB  CYS A   2      16.790  -2.352  14.345  0.00  0.00    +0.098 C 
ATOM     74  SG  CYS A   2      16.582  -1.062  13.104  0.00  0.00    -0.080 S 
ENDBRANCH  61  73
ENDBRANCH  57  61
ENDBRANCH  56  59
BRANCH  56  75
ATOM     75  CB  LEU A   3      19.145   1.244  18.568  0.00  0.00    +0.029 C 
BRANCH  75  76
ATOM     76  CG  LEU A   3      19.326   0.050  19.508  0.00  0.00    +0.002 C 
ATOM     77  CD2 LEU A   3      20.376   0.360  20.575  0.00  0.00    +0.000 C 
ATOM     78  CD1 LEU A   3      18.003  -0.353  20.148  0.00  0.00    +0.000 C 
ENDBRANCH  75  76
ENDBRANCH  56  75
ENDBRANCH  52  56
ENDBRANCH  51  53
BRANCH  51  79
ATOM     79  CB  ASP A   4      17.727   5.557  17.226  0.00  0.00    +0.143 C 
BRANCH  79  80
ATOM     80  CG  ASP A   4      17.487   5.648  18.725  0.00  0.00    +0.367 C 
ATOM     81  OD2 ASP A   4      18.342   6.221  19.436  0.00  0.00    -0.246 OA
ATOM     82  OD1 ASP A   4      16.437   5.160  19.195  0.00  0.00    -0.246 OA
ENDBRANCH  79  80
ENDBRANCH  51  79
ENDBRANCH  47  51
ENDBRANCH  46  49
BRANCH  46  83
ATOM     83  CB  VAL A   5      16.984   2.418  12.276  0.00  0.00    +0.027 C 
ATOM     84  CG2 VAL A   5      18.430   2.260  12.727  0.00  0.00    +0.002 C 
ATOM     85  CG1 VAL A   5      16.879   2.377  10.755  0.00  0.00    +0.002 C 
ENDBRANCH  46  83
ENDBRANCH   1  46
TORSDOF 35
REMARK  Name = ../refined-set-2016/4qdk/4qdk_pocket.pdb
REMARK  228 active torsions:
REMARK  status: ('A' for Active; 'I' for Inactive)
REMARK    1  A    between atoms: _1  and  _3
REMARK    2  A    between atoms: _3  and  _4
REMARK    3  A    between atoms: _3  and  _6
REMARK    4  A    between atoms: _6  and  _7
REMARK    5  A    between atoms: _10  and  _12
REMARK    6  A    between atoms: _12  and  _13
REMARK    7  A    between atoms: _12  and  _15
REMARK    8  A    between atoms: _15  and  _16
REMARK    9  A    between atoms: _16  and  _17
REMARK   10  A    between atoms: _17  and  _18
REMARK   11  A    between atoms: _18  and  _19
REMARK   12  A    between atoms: _23  and  _25
REMARK   13  A    between atoms: _25  and  _26
REMARK   14  A    between atoms: _25  and  _28
REMARK   15  A    between atoms: _28  and  _29
REMARK   16  A    between atoms: _32  and  _34
REMARK   17  A    between atoms: _34  and  _35
REMARK   18  A    between atoms: _34  and  _37
REMARK   19  A    between atoms: _40  and  _42
REMARK   20  A    between atoms: _42  and  _43
REMARK   21  A    between atoms: _42  and  _45
REMARK   22  A    between atoms: _45  and  _46
REMARK   23  A    between atoms: _46  and  _47
REMARK   24  A    between atoms: _47  and  _48
REMARK   25  A    between atoms: _57  and  _59
REMARK   26  A    between atoms: _59  and  _60
REMARK   27  A    between atoms: _59  and  _62
REMARK   28  A    between atoms: _62  and  _63
REMARK   29  A    between atoms: _66  and  _68
REMARK   30  A    between atoms: _68  and  _69
REMARK   31  A    between atoms: _68  and  _71
REMARK   32  A    between atoms: _71  and  _72
REMARK   33  A    between atoms: _77  and  _78
REMARK   34  A    between atoms: _80  and  _82
REMARK   35  A    between atoms: _82  and  _83
REMARK   36  A    between atoms: _82  and  _85
REMARK   37  A    between atoms: _85  and  _86
REMARK   38  A    between atoms: _92  and  _94
REMARK   39  A    between atoms: _94  and  _95
REMARK   40  A    between atoms: _94  and  _97
REMARK   41  A    between atoms: _97  and  _98
REMARK   42  A    between atoms: _103  and  _105
REMARK   43  A    between atoms: _105  and  _106
REMARK   44  A    between atoms: _108  and  _110
REMARK   45  A    between atoms: _110  and  _111
REMARK   46  A    between atoms: _110  and  _113
REMARK   47  A    between atoms: _113  and  _114
REMARK   48  A    between atoms: _120  and  _122
REMARK   49  A    between atoms: _122  and  _123
REMARK   50  A    between atoms: _122  and  _125
REMARK   51  A    between atoms: _125  and  _126
REMARK   52  A    between atoms: _136  and  _138
REMARK   53  A    between atoms: _138  and  _139
REMARK   54  A    between atoms: _138  and  _141
REMARK   55  A    between atoms: _141  and  _142
REMARK   56  A    between atoms: _147  and  _148
REMARK   57  A    between atoms: _150  and  _152
REMARK   58  A    between atoms: _152  and  _153
REMARK   59  A    between atoms: _152  and  _155
REMARK   60  A    between atoms: _155  and  _156
REMARK   61  A    between atoms: _161  and  _163
REMARK   62  A    between atoms: _163  and  _164
REMARK   63  A    between atoms: _163  and  _166
REMARK   64  A    between atoms: _166  and  _167
REMARK   65  A    between atoms: _167  and  _168
REMARK   66  A    between atoms: _173  and  _175
REMARK   67  A    between atoms: _175  and  _176
REMARK   68  A    between atoms: _175  and  _178
REMARK   69  A    between atoms: _178  and  _179
REMARK   70  A    between atoms: _182  and  _184
REMARK   71  A    between atoms: _184  and  _185
REMARK   72  A    between atoms: _184  and  _187
REMARK   73  A    between atoms: _190  and  _192
REMARK   74  A    between atoms: _192  and  _193
REMARK   75  A    between atoms: _192  and  _195
REMARK   76  A    between atoms: _195  and  _196
REMARK   77  A    between atoms: _199  and  _201
REMARK   78  A    between atoms: _201  and  _202
REMARK   79  A    between atoms: _205  and  _207
REMARK   80  A    between atoms: _207  and  _208
REMARK   81  A    between atoms: _210  and  _212
REMARK   82  A    between atoms: _212  and  _213
REMARK   83  A    between atoms: _212  and  _215
REMARK   84  A    between atoms: _217  and  _219
REMARK   85  A    between atoms: _219  and  _220
REMARK   86  A    between atoms: _222  and  _224
REMARK   87  A    between atoms: _224  and  _225
REMARK   88  A    between atoms: _224  and  _227
REMARK   89  A    between atoms: _230  and  _232
REMARK   90  A    between atoms: _232  and  _233
REMARK   91  A    between atoms: _235  and  _237
REMARK   92  A    between atoms: _237  and  _238
REMARK   93  A    between atoms: _237  and  _240
REMARK   94  A    between atoms: _240  and  _241
REMARK   95  A    between atoms: _243  and  _245
REMARK   96  A    between atoms: _245  and  _246
REMARK   97  A    between atoms: _245  and  _248
REMARK   98  A    between atoms: _248  and  _249
REMARK   99  A    between atoms: _252  and  _254
REMARK  100  A    between atoms: _254  and  _255
REMARK  101  A    between atoms: _254  and  _257
REMARK  102  A    between atoms: _257  and  _258
REMARK  103  A    between atoms: _260  and  _262
REMARK  104  A    between atoms: _262  and  _263
REMARK  105  A    between atoms: _262  and  _265
REMARK  106  A    between atoms: _265  and  _266
REMARK  107  A    between atoms: _268  and  _270
REMARK  108  A    between atoms: _270  and  _271
REMARK  109  A    between atoms: _270  and  _273
REMARK  110  A    between atoms: _273  and  _274
REMARK  111  A    between atoms: _277  and  _279
REMARK  112  A    between atoms: _279  and  _280
REMARK  113  A    between atoms: _279  and  _282
REMARK  114  A    between atoms: _282  and  _283
REMARK  115  A    between atoms: _286  and  _288
REMARK  116  A    between atoms: _288  and  _289
REMARK  117  A    between atoms: _288  and  _291
REMARK  118  A    between atoms: _291  and  _292
REMARK  119  A    between atoms: _294  and  _296
REMARK  120  A    between atoms: _296  and  _297
REMARK  121  A    between atoms: _296  and  _299
REMARK  122  A    between atoms: _299  and  _300
REMARK  123  A    between atoms: _300  and  _301
REMARK  124  A    between atoms: _304  and  _306
REMARK  125  A    between atoms: _306  and  _307
REMARK  126  A    between atoms: _306  and  _309
REMARK  127  A    between atoms: _309  and  _310
REMARK  128  A    between atoms: _310  and  _311
REMARK  129  A    between atoms: _311  and  _312
REMARK  130  A    between atoms: _312  and  _313
REMARK  131  A    between atoms: _317  and  _319
REMARK  132  A    between atoms: _319  and  _320
REMARK  133  A    between atoms: _319  and  _322
REMARK  134  A    between atoms: _322  and  _323
REMARK  135  A    between atoms: _323  and  _324
REMARK  136  A    between atoms: _326  and  _328
REMARK  137  A    between atoms: _328  and  _329
REMARK  138  A    between atoms: _328  and  _331
REMARK  139  A    between atoms: _334  and  _336
REMARK  140  A    between atoms: _336  and  _337
REMARK  141  A    between atoms: _336  and  _339
REMARK  142  A    between atoms: _339  and  _340
REMARK  143  A    between atoms: _340  and  _341
REMARK  144  A    between atoms: _343  and  _345
REMARK  145  A    between atoms: _345  and  _346
REMARK  146  A    between atoms: _345  and  _348
REMARK  147  A    between atoms: _348  and  _349
REMARK  148  A    between atoms: _352  and  _354
REMARK  149  A    between atoms: _354  and  _355
REMARK  150  A    between atoms: _354  and  _357
REMARK  151  A    between atoms: _357  and  _358
REMARK  152  A    between atoms: _358  and  _359
REMARK  153  A    between atoms: _364  and  _366
REMARK  154  A    between atoms: _366  and  _367
REMARK  155  A    between atoms: _366  and  _369
REMARK  156  A    between atoms: _369  and  _370
REMARK  157  A    between atoms: _373  and  _375
REMARK  158  A    between atoms: _375  and  _376
REMARK  159  A    between atoms: _375  and  _378
REMARK  160  A    between atoms: _378  and  _379
REMARK  161  A    between atoms: _382  and  _384
REMARK  162  A    between atoms: _384  and  _385
REMARK  163  A    between atoms: _388  and  _390
REMARK  164  A    between atoms: _390  and  _391
REMARK  165  A    between atoms: _390  and  _393
REMARK  166  A    between atoms: _393  and  _394
REMARK  167  A    between atoms: _394  and  _395
REMARK  168  A    between atoms: _400  and  _402
REMARK  169  A    between atoms: _402  and  _403
REMARK  170  A    between atoms: _402  and  _405
REMARK  171  A    between atoms: _405  and  _406
REMARK  172  A    between atoms: _409  and  _411
REMARK  173  A    between atoms: _411  and  _412
REMARK  174  A    between atoms: _411  and  _414
REMARK  175  A    between atoms: _414  and  _415
REMARK  176  A    between atoms: _418  and  _420
REMARK  177  A    between atoms: _420  and  _421
REMARK  178  A    between atoms: _420  and  _423
REMARK  179  A    between atoms: _425  and  _427
REMARK  180  A    between atoms: _427  and  _428
REMARK  181  A    between atoms: _427  and  _430
REMARK  182  A    between atoms: _430  and  _431
REMARK  183  A    between atoms: _434  and  _436
REMARK  184  A    between atoms: _436  and  _437
REMARK  185  A    between atoms: _436  and  _439
REMARK  186  A    between atoms: _439  and  _440
REMARK  187  A    between atoms: _443  and  _445
REMARK  188  A    between atoms: _445  and  _446
REMARK  189  A    between atoms: _445  and  _448
REMARK  190  A    between atoms: _451  and  _453
REMARK  191  A    between atoms: _453  and  _454
REMARK  192  A    between atoms: _453  and  _456
REMARK  193  A    between atoms: _456  and  _457
REMARK  194  A    between atoms: _460  and  _462
REMARK  195  A    between atoms: _462  and  _463
REMARK  196  A    between atoms: _462  and  _465
REMARK  197  A    between atoms: _465  and  _466
REMARK  198  A    between atoms: _469  and  _471
REMARK  199  A    between atoms: _471  and  _472
REMARK  200  A    between atoms: _471  and  _474
REMARK  201  A    between atoms: _474  and  _475
REMARK  202  A    between atoms: _480  and  _482
REMARK  203  A    between atoms: _482  and  _483
REMARK  204  A    between atoms: _482  and  _485
REMARK  205  A    between atoms: _485  and  _486
REMARK  206  A    between atoms: _491  and  _492
REMARK  207  A    between atoms: _494  and  _496
REMARK  208  A    between atoms: _496  and  _497
REMARK  209  A    between atoms: _496  and  _499
REMARK  210  A    between atoms: _499  and  _500
REMARK  211  A    between atoms: _500  and  _501
REMARK  212  A    between atoms: _503  and  _505
REMARK  213  A    between atoms: _505  and  _506
REMARK  214  A    between atoms: _505  and  _508
REMARK  215  A    between atoms: _508  and  _509
REMARK  216  A    between atoms: _512  and  _514
REMARK  217  A    between atoms: _514  and  _515
REMARK  218  A    between atoms: _514  and  _517
REMARK  219  A    between atoms: _517  and  _518
REMARK  220  A    between atoms: _520  and  _522
REMARK  221  A    between atoms: _522  and  _523
REMARK  222  A    between atoms: _522  and  _525
REMARK  223  A    between atoms: _525  and  _526
REMARK  224  A    between atoms: _531  and  _532
REMARK  225  A    between atoms: _534  and  _536
REMARK  226  A    between atoms: _536  and  _537
REMARK  227  A    between atoms: _536  and  _539
REMARK  228  A    between atoms: _539  and  _540
REMARK                            x       y       z     vdW  Elec       q    Type
REMARK                         _______ _______ _______ _____ _____    ______ ____
ROOT
ATOM      1  CA  MET A   1      11.754  -3.759   7.808  0.00  0.00    +0.134 C 
ENDROOT
BRANCH   1   2
ATOM      2  N   MET A   1      10.409  -3.747   7.241  0.00  0.00    -0.239 NA
ATOM      3  H   MET A   1       9.831  -2.887   7.326  0.00  0.00    +0.142 HD
ENDBRANCH   1   2
BRANCH   1   4
ATOM      4  C   MET A   1      11.850  -4.704   8.998  0.00  0.00    +0.224 C 
ATOM      5  O   MET A   1      12.772  -5.511   9.083  0.00  0.00    -0.287 OA
ENDBRANCH   1   4
BRANCH   1   6
ATOM      6  CB  MET A   1      12.181  -2.344   8.206  0.00  0.00    +0.037 C 
BRANCH   6   7
ATOM      7  CG  MET A   1      12.309  -1.394   7.023  0.00  0.00    +0.059 C 
BRANCH   7   8
ATOM      8  SD  MET A   1      12.529   0.330   7.508  0.00  0.00    -0.139 S 
ATOM      9  CE  MET A   1      14.138   0.282   8.290  0.00  0.00    +0.069 C 
ENDBRANCH   7   8
ENDBRANCH   6   7
ENDBRANCH   1   6
TORSDOF 5
REMARK  Name = ../refined-set-2016/4qdk/4qdk_pocket.pdb
REMARK  228 active torsions:
REMARK  status: ('A' for Active; 'I' for Inactive)
REMARK    1  A    between atoms: _1  and  _3
REMARK    2  A    between atoms: _3  and  _4
REMARK    3  A    between atoms: _3  and  _6
REMARK    4  A    between atoms: _6  and  _7
REMARK    5  A    between atoms: _10  and  _12
REMARK    6  A    between atoms: _12  and  _13
REMARK    7  A    between atoms: _12  and  _15
REMARK    8  A    between atoms: _15  and  _16
REMARK    9  A    between atoms: _16  and  _17
REMARK   10  A    between atoms: _17  and  _18
REMARK   11  A    between atoms: _18  and  _19
REMARK   12  A    between atoms: _23  and  _25
REMARK   13  A    between atoms: _25  and  _26
REMARK   14  A    between atoms: _25  and  _28
REMARK   15  A    between atoms: _28  and  _29
REMARK   16  A    between atoms: _32  and  _34
REMARK   17  A    between atoms: _34  and  _35
REMARK   18  A    between atoms: _34  and  _37
REMARK   19  A    between atoms: _40  and  _42
REMARK   20  A    between atoms: _42  and  _43
REMARK   21  A    between atoms: _42  and  _45
REMARK   22  A    between atoms: _45  and  _46
REMARK   23  A    between atoms: _46  and  _47
REMARK   24  A    between atoms: _47  and  _48
REMARK   25  A    between atoms: _57  and  _59
REMARK   26  A    between atoms: _59  and  _60
REMARK   27  A    between atoms: _59  and  _62
REMARK   28  A    between atoms: _62  and  _63
REMARK   29  A    between atoms: _66  and  _68
REMARK   30  A    between atoms: _68  and  _69
REMARK   31  A    between atoms: _68  and  _71
REMARK   32  A    between atoms: _71  and  _72
REMARK   33  A    between atoms: _77  and  _78
REMARK   34  A    between atoms: _80  and  _82
REMARK   35  A    between atoms: _82  and  _83
REMARK   36  A    between atoms: _82  and  _85
REMARK   37  A    between atoms: _85  and  _86
REMARK   38  A    between atoms: _92  and  _94
REMARK   39  A    between atoms: _94  and  _95
REMARK   40  A    between atoms: _94  and  _97
REMARK   41  A    between atoms: _97  and  _98
REMARK   42  A    between atoms: _103  and  _105
REMARK   43  A    between atoms: _105  and  _106
REMARK   44  A    between atoms: _108  and  _110
REMARK   45  A    between atoms: _110  and  _111
REMARK   46  A    between atoms: _110  and  _113
REMARK   47  A    between atoms: _113  and  _114
REMARK   48  A    between atoms: _120  and  _122
REMARK   49  A    between atoms: _122  and  _123
REMARK   50  A    between atoms: _122  and  _125
REMARK   51  A    between atoms: _125  and  _126
REMARK   52  A    between atoms: _136  and  _138
REMARK   53  A    between atoms: _138  and  _139
REMARK   54  A    between atoms: _138  and  _141
REMARK   55  A    between atoms: _141  and  _142
REMARK   56  A    between atoms: _147  and  _148
REMARK   57  A    between atoms: _150  and  _152
REMARK   58  A    between atoms: _152  and  _153
REMARK   59  A    between atoms: _152  and  _155
REMARK   60  A    between atoms: _155  and  _156
REMARK   61  A    between atoms: _161  and  _163
REMARK   62  A    between atoms: _163  and  _164
REMARK   63  A    between atoms: _163  and  _166
REMARK   64  A    between atoms: _166  and  _167
REMARK   65  A    between atoms: _167  and  _168
REMARK   66  A    between atoms: _173  and  _175
REMARK   67  A    between atoms: _175  and  _176
REMARK   68  A    between atoms: _175  and  _178
REMARK   69  A    between atoms: _178  and  _179
REMARK   70  A    between atoms: _182  and  _184
REMARK   71  A    between atoms: _184  and  _185
REMARK   72  A    between atoms: _184  and  _187
REMARK   73  A    between atoms: _190  and  _192
REMARK   74  A    between atoms: _192  and  _193
REMARK   75  A    between atoms: _192  and  _195
REMARK   76  A    between atoms: _195  and  _196
REMARK   77  A    between atoms: _199  and  _201
REMARK   78  A    between atoms: _201  and  _202
REMARK   79  A    between atoms: _205  and  _207
REMARK   80  A    between atoms: _207  and  _208
REMARK   81  A    between atoms: _210  and  _212
REMARK   82  A    between atoms: _212  and  _213
REMARK   83  A    between atoms: _212  and  _215
REMARK   84  A    between atoms: _217  and  _219
REMARK   85  A    between atoms: _219  and  _220
REMARK   86  A    between atoms: _222  and  _224
REMARK   87  A    between atoms: _224  and  _225
REMARK   88  A    between atoms: _224  and  _227
REMARK   89  A    between atoms: _230  and  _232
REMARK   90  A    between atoms: _232  and  _233
REMARK   91  A    between atoms: _235  and  _237
REMARK   92  A    between atoms: _237  and  _238
REMARK   93  A    between atoms: _237  and  _240
REMARK   94  A    between atoms: _240  and  _241
REMARK   95  A    between atoms: _243  and  _245
REMARK   96  A    between atoms: _245  and  _246
REMARK   97  A    between atoms: _245  and  _248
REMARK   98  A    between atoms: _248  and  _249
REMARK   99  A    between atoms: _252  and  _254
REMARK  100  A    between atoms: _254  and  _255
REMARK  101  A    between atoms: _254  and  _257
REMARK  102  A    between atoms: _257  and  _258
REMARK  103  A    between atoms: _260  and  _262
REMARK  104  A    between atoms: _262  and  _263
REMARK  105  A    between atoms: _262  and  _265
REMARK  106  A    between atoms: _265  and  _266
REMARK  107  A    between atoms: _268  and  _270
REMARK  108  A    between atoms: _270  and  _271
REMARK  109  A    between atoms: _270  and  _273
REMARK  110  A    between atoms: _273  and  _274
REMARK  111  A    between atoms: _277  and  _279
REMARK  112  A    between atoms: _279  and  _280
REMARK  113  A    between atoms: _279  and  _282
REMARK  114  A    between atoms: _282  and  _283
REMARK  115  A    between atoms: _286  and  _288
REMARK  116  A    between atoms: _288  and  _289
REMARK  117  A    between atoms: _288  and  _291
REMARK  118  A    between atoms: _291  and  _292
REMARK  119  A    between atoms: _294  and  _296
REMARK  120  A    between atoms: _296  and  _297
REMARK  121  A    between atoms: _296  and  _299
REMARK  122  A    between atoms: _299  and  _300
REMARK  123  A    between atoms: _300  and  _301
REMARK  124  A    between atoms: _304  and  _306
REMARK  125  A    between atoms: _306  and  _307
REMARK  126  A    between atoms: _306  and  _309
REMARK  127  A    between atoms: _309  and  _310
REMARK  128  A    between atoms: _310  and  _311
REMARK  129  A    between atoms: _311  and  _312
REMARK  130  A    between atoms: _312  and  _313
REMARK  131  A    between atoms: _317  and  _319
REMARK  132  A    between atoms: _319  and  _320
REMARK  133  A    between atoms: _319  and  _322
REMARK  134  A    between atoms: _322  and  _323
REMARK  135  A    between atoms: _323  and  _324
REMARK  136  A    between atoms: _326  and  _328
REMARK  137  A    between atoms: _328  and  _329
REMARK  138  A    between atoms: _328  and  _331
REMARK  139  A    between atoms: _334  and  _336
REMARK  140  A    between atoms: _336  and  _337
REMARK  141  A    between atoms: _336  and  _339
REMARK  142  A    between atoms: _339  and  _340
REMARK  143  A    between atoms: _340  and  _341
REMARK  144  A    between atoms: _343  and  _345
REMARK  145  A    between atoms: _345  and  _346
REMARK  146  A    between atoms: _345  and  _348
REMARK  147  A    between atoms: _348  and  _349
REMARK  148  A    between atoms: _352  and  _354
REMARK  149  A    between atoms: _354  and  _355
REMARK  150  A    between atoms: _354  and  _357
REMARK  151  A    between atoms: _357  and  _358
REMARK  152  A    between atoms: _358  and  _359
REMARK  153  A    between atoms: _364  and  _366
REMARK  154  A    between atoms: _366  and  _367
REMARK  155  A    between atoms: _366  and  _369
REMARK  156  A    between atoms: _369  and  _370
REMARK  157  A    between atoms: _373  and  _375
REMARK  158  A    between atoms: _375  and  _376
REMARK  159  A    between atoms: _375  and  _378
REMARK  160  A    between atoms: _378  and  _379
REMARK  161  A    between atoms: _382  and  _384
REMARK  162  A    between atoms: _384  and  _385
REMARK  163  A    between atoms: _388  and  _390
REMARK  164  A    between atoms: _390  and  _391
REMARK  165  A    between atoms: _390  and  _393
REMARK  166  A    between atoms: _393  and  _394
REMARK  167  A    between atoms: _394  and  _395
REMARK  168  A    between atoms: _400  and  _402
REMARK  169  A    between atoms: _402  and  _403
REMARK  170  A    between atoms: _402  and  _405
REMARK  171  A    between atoms: _405  and  _406
REMARK  172  A    between atoms: _409  and  _411
REMARK  173  A    between atoms: _411  and  _412
REMARK  174  A    between atoms: _411  and  _414
REMARK  175  A    between atoms: _414  and  _415
REMARK  176  A    between atoms: _418  and  _420
REMARK  177  A    between atoms: _420  and  _421
REMARK  178  A    between atoms: _420  and  _423
REMARK  179  A    between atoms: _425  and  _427
REMARK  180  A    between atoms: _427  and  _428
REMARK  181  A    between atoms: _427  and  _430
REMARK  182  A    between atoms: _430  and  _431
REMARK  183  A    between atoms: _434  and  _436
REMARK  184  A    between atoms: _436  and  _437
REMARK  185  A    between atoms: _436  and  _439
REMARK  186  A    between atoms: _439  and  _440
REMARK  187  A    between atoms: _443  and  _445
REMARK  188  A    between atoms: _445  and  _446
REMARK  189  A    between atoms: _445  and  _448
REMARK  190  A    between atoms: _451  and  _453
REMARK  191  A    between atoms: _453  and  _454
REMARK  192  A    between atoms: _453  and  _456
REMARK  193  A    between atoms: _456  and  _457
REMARK  194  A    between atoms: _460  and  _462
REMARK  195  A    between atoms: _462  and  _463
REMARK  196  A    between atoms: _462  and  _465
REMARK  197  A    between atoms: _465  and  _466
REMARK  198  A    between atoms: _469  and  _471
REMARK  199  A    between atoms: _471  and  _472
REMARK  200  A    between atoms: _471  and  _474
REMARK  201  A    between atoms: _474  and  _475
REMARK  202  A    between atoms: _480  and  _482
REMARK  203  A    between atoms: _482  and  _483
REMARK  204  A    between atoms: _482  and  _485
REMARK  205  A    between atoms: _485  and  _486
REMARK  206  A    between atoms: _491  and  _492
REMARK  207  A    between atoms: _494  and  _496
REMARK  208  A    between atoms: _496  and  _497
REMARK  209  A    between atoms: _496  and  _499
REMARK  210  A    between atoms: _499  and  _500
REMARK  211  A    between atoms: _500  and  _501
REMARK  212  A    between atoms: _503  and  _505
REMARK  213  A    between atoms: _505  and  _506
REMARK  214  A    between atoms: _505  and  _508
REMARK  215  A    between atoms: _508  and  _509
REMARK  216  A    between atoms: _512  and  _514
REMARK  217  A    between atoms: _514  and  _515
REMARK  218  A    between atoms: _514  and  _517
REMARK  219  A    between atoms: _517  and  _518
REMARK  220  A    between atoms: _520  and  _522
REMARK  221  A    between atoms: _522  and  _523
REMARK  222  A    between atoms: _522  and  _525
REMARK  223  A    between atoms: _525  and  _526
REMARK  224  A    between atoms: _531  and  _532
REMARK  225  A    between atoms: _534  and  _536
REMARK  226  A    between atoms: _536  and  _537
REMARK  227  A    between atoms: _536  and  _539
REMARK  228  A    between atoms: _539  and  _540
REMARK                            x       y       z     vdW  Elec       q    Type
REMARK                         _______ _______ _______ _____ _____    ______ ____
ROOT
ATOM      1  CA  LEU A   1      15.025  -8.370  10.525  0.00  0.00    +0.133 C 
ENDROOT
BRANCH   1   2
ATOM      2  N   LEU A   1      14.086  -8.227   9.418  0.00  0.00    -0.239 NA
ATOM      3  H   LEU A   1      13.490  -7.377   9.361  0.00  0.00    +0.142 HD
ENDBRANCH   1   2
BRANCH   1   4
ATOM      4  C   LEU A   1      14.696  -9.596  11.365  0.00  0.00    +0.224 C 
ATOM      5  O   LEU A   1      15.593 -10.314  11.803  0.00  0.00    -0.287 OA
ENDBRANCH   1   4
BRANCH   1   6
ATOM      6  CB  LEU A   1      15.033  -7.117  11.403  0.00  0.00    +0.025 C 
BRANCH   6   7
ATOM      7  CG  LEU A   1      15.660  -5.870  10.778  0.00  0.00    +0.002 C 
ATOM      8  CD2 LEU A   1      15.502  -4.674  11.698  0.00  0.00    +0.000 C 
ATOM      9  CD1 LEU A   1      17.132  -6.112  10.456  0.00  0.00    +0.000 C 
ENDBRANCH   6   7
ENDBRANCH   1   6
TORSDOF 4
REMARK  Name = ../refined-set-2016/4qdk/4qdk_pocket.pdb
REMARK  228 active torsions:
REMARK  status: ('A' for Active; 'I' for Inactive)
REMARK    1  A    between atoms: _1  and  _3
REMARK    2  A    between atoms: _3  and  _4
REMARK    3  A    between atoms: _3  and  _6
REMARK    4  A    between atoms: _6  and  _7
REMARK    5  A    between atoms: _10  and  _12
REMARK    6  A    between atoms: _12  and  _13
REMARK    7  A    between atoms: _12  and  _15
REMARK    8  A    between atoms: _15  and  _16
REMARK    9  A    between atoms: _16  and  _17
REMARK   10  A    between atoms: _17  and  _18
REMARK   11  A    between atoms: _18  and  _19
REMARK   12  A    between atoms: _23  and  _25
REMARK   13  A    between atoms: _25  and  _26
REMARK   14  A    between atoms: _25  and  _28
REMARK   15  A    between atoms: _28  and  _29
REMARK   16  A    between atoms: _32  and  _34
REMARK   17  A    between atoms: _34  and  _35
REMARK   18  A    between atoms: _34  and  _37
REMARK   19  A    between atoms: _40  and  _42
REMARK   20  A    between atoms: _42  and  _43
REMARK   21  A    between atoms: _42  and  _45
REMARK   22  A    between atoms: _45  and  _46
REMARK   23  A    between atoms: _46  and  _47
REMARK   24  A    between atoms: _47  and  _48
REMARK   25  A    between atoms: _57  and  _59
REMARK   26  A    between atoms: _59  and  _60
REMARK   27  A    between atoms: _59  and  _62
REMARK   28  A    between atoms: _62  and  _63
REMARK   29  A    between atoms: _66  and  _68
REMARK   30  A    between atoms: _68  and  _69
REMARK   31  A    between atoms: _68  and  _71
REMARK   32  A    between atoms: _71  and  _72
REMARK   33  A    between atoms: _77  and  _78
REMARK   34  A    between atoms: _80  and  _82
REMARK   35  A    between atoms: _82  and  _83
REMARK   36  A    between atoms: _82  and  _85
REMARK   37  A    between atoms: _85  and  _86
REMARK   38  A    between atoms: _92  and  _94
REMARK   39  A    between atoms: _94  and  _95
REMARK   40  A    between atoms: _94  and  _97
REMARK   41  A    between atoms: _97  and  _98
REMARK   42  A    between atoms: _103  and  _105
REMARK   43  A    between atoms: _105  and  _106
REMARK   44  A    between atoms: _108  and  _110
REMARK   45  A    between atoms: _110  and  _111
REMARK   46  A    between atoms: _110  and  _113
REMARK   47  A    between atoms: _113  and  _114
REMARK   48  A    between atoms: _120  and  _122
REMARK   49  A    between atoms: _122  and  _123
REMARK   50  A    between atoms: _122  and  _125
REMARK   51  A    between atoms: _125  and  _126
REMARK   52  A    between atoms: _136  and  _138
REMARK   53  A    between atoms: _138  and  _139
REMARK   54  A    between atoms: _138  and  _141
REMARK   55  A    between atoms: _141  and  _142
REMARK   56  A    between atoms: _147  and  _148
REMARK   57  A    between atoms: _150  and  _152
REMARK   58  A    between atoms: _152  and  _153
REMARK   59  A    between atoms: _152  and  _155
REMARK   60  A    between atoms: _155  and  _156
REMARK   61  A    between atoms: _161  and  _163
REMARK   62  A    between atoms: _163  and  _164
REMARK   63  A    between atoms: _163  and  _166
REMARK   64  A    between atoms: _166  and  _167
REMARK   65  A    between atoms: _167  and  _168
REMARK   66  A    between atoms: _173  and  _175
REMARK   67  A    between atoms: _175  and  _176
REMARK   68  A    between atoms: _175  and  _178
REMARK   69  A    between atoms: _178  and  _179
REMARK   70  A    between atoms: _182  and  _184
REMARK   71  A    between atoms: _184  and  _185
REMARK   72  A    between atoms: _184  and  _187
REMARK   73  A    between atoms: _190  and  _192
REMARK   74  A    between atoms: _192  and  _193
REMARK   75  A    between atoms: _192  and  _195
REMARK   76  A    between atoms: _195  and  _196
REMARK   77  A    between atoms: _199  and  _201
REMARK   78  A    between atoms: _201  and  _202
REMARK   79  A    between atoms: _205  and  _207
REMARK   80  A    between atoms: _207  and  _208
REMARK   81  A    between atoms: _210  and  _212
REMARK   82  A    between atoms: _212  and  _213
REMARK   83  A    between atoms: _212  and  _215
REMARK   84  A    between atoms: _217  and  _219
REMARK   85  A    between atoms: _219  and  _220
REMARK   86  A    between atoms: _222  and  _224
REMARK   87  A    between atoms: _224  and  _225
REMARK   88  A    between atoms: _224  and  _227
REMARK   89  A    between atoms: _230  and  _232
REMARK   90  A    between atoms: _232  and  _233
REMARK   91  A    between atoms: _235  and  _237
REMARK   92  A    between atoms: _237  and  _238
REMARK   93  A    between atoms: _237  and  _240
REMARK   94  A    between atoms: _240  and  _241
REMARK   95  A    between atoms: _243  and  _245
REMARK   96  A    between atoms: _245  and  _246
REMARK   97  A    between atoms: _245  and  _248
REMARK   98  A    between atoms: _248  and  _249
REMARK   99  A    between atoms: _252  and  _254
REMARK  100  A    between atoms: _254  and  _255
REMARK  101  A    between atoms: _254  and  _257
REMARK  102  A    between atoms: _257  and  _258
REMARK  103  A    between atoms: _260  and  _262
REMARK  104  A    between atoms: _262  and  _263
REMARK  105  A    between atoms: _262  and  _265
REMARK  106  A    between atoms: _265  and  _266
REMARK  107  A    between atoms: _268  and  _270
REMARK  108  A    between atoms: _270  and  _271
REMARK  109  A    between atoms: _270  and  _273
REMARK  110  A    between atoms: _273  and  _274
REMARK  111  A    between atoms: _277  and  _279
REMARK  112  A    between atoms: _279  and  _280
REMARK  113  A    between atoms: _279  and  _282
REMARK  114  A    between atoms: _282  and  _283
REMARK  115  A    between atoms: _286  and  _288
REMARK  116  A    between atoms: _288  and  _289
REMARK  117  A    between atoms: _288  and  _291
REMARK  118  A    between atoms: _291  and  _292
REMARK  119  A    between atoms: _294  and  _296
REMARK  120  A    between atoms: _296  and  _297
REMARK  121  A    between atoms: _296  and  _299
REMARK  122  A    between atoms: _299  and  _300
REMARK  123  A    between atoms: _300  and  _301
REMARK  124  A    between atoms: _304  and  _306
REMARK  125  A    between atoms: _306  and  _307
REMARK  126  A    between atoms: _306  and  _309
REMARK  127  A    between atoms: _309  and  _310
REMARK  128  A    between atoms: _310  and  _311
REMARK  129  A    between atoms: _311  and  _312
REMARK  130  A    between atoms: _312  and  _313
REMARK  131  A    between atoms: _317  and  _319
REMARK  132  A    between atoms: _319  and  _320
REMARK  133  A    between atoms: _319  and  _322
REMARK  134  A    between atoms: _322  and  _323
REMARK  135  A    between atoms: _323  and  _324
REMARK  136  A    between atoms: _326  and  _328
REMARK  137  A    between atoms: _328  and  _329
REMARK  138  A    between atoms: _328  and  _331
REMARK  139  A    between atoms: _334  and  _336
REMARK  140  A    between atoms: _336  and  _337
REMARK  141  A    between atoms: _336  and  _339
REMARK  142  A    between atoms: _339  and  _340
REMARK  143  A    between atoms: _340  and  _341
REMARK  144  A    between atoms: _343  and  _345
REMARK  145  A    between atoms: _345  and  _346
REMARK  146  A    between atoms: _345  and  _348
REMARK  147  A    between atoms: _348  and  _349
REMARK  148  A    between atoms: _352  and  _354
REMARK  149  A    between atoms: _354  and  _355
REMARK  150  A    between atoms: _354  and  _357
REMARK  151  A    between atoms: _357  and  _358
REMARK  152  A    between atoms: _358  and  _359
REMARK  153  A    between atoms: _364  and  _366
REMARK  154  A    between atoms: _366  and  _367
REMARK  155  A    between atoms: _366  and  _369
REMARK  156  A    between atoms: _369  and  _370
REMARK  157  A    between atoms: _373  and  _375
REMARK  158  A    between atoms: _375  and  _376
REMARK  159  A    between atoms: _375  and  _378
REMARK  160  A    between atoms: _378  and  _379
REMARK  161  A    between atoms: _382  and  _384
REMARK  162  A    between atoms: _384  and  _385
REMARK  163  A    between atoms: _388  and  _390
REMARK  164  A    between atoms: _390  and  _391
REMARK  165  A    between atoms: _390  and  _393
REMARK  166  A    between atoms: _393  and  _394
REMARK  167  A    between atoms: _394  and  _395
REMARK  168  A    between atoms: _400  and  _402
REMARK  169  A    between atoms: _402  and  _403
REMARK  170  A    between atoms: _402  and  _405
REMARK  171  A    between atoms: _405  and  _406
REMARK  172  A    between atoms: _409  and  _411
REMARK  173  A    between atoms: _411  and  _412
REMARK  174  A    between atoms: _411  and  _414
REMARK  175  A    between atoms: _414  and  _415
REMARK  176  A    between atoms: _418  and  _420
REMARK  177  A    between atoms: _420  and  _421
REMARK  178  A    between atoms: _420  and  _423
REMARK  179  A    between atoms: _425  and  _427
REMARK  180  A    between atoms: _427  and  _428
REMARK  181  A    between atoms: _427  and  _430
REMARK  182  A    between atoms: _430  and  _431
REMARK  183  A    between atoms: _434  and  _436
REMARK  184  A    between atoms: _436  and  _437
REMARK  185  A    between atoms: _436  and  _439
REMARK  186  A    between atoms: _439  and  _440
REMARK  187  A    between atoms: _443  and  _445
REMARK  188  A    between atoms: _445  and  _446
REMARK  189  A    between atoms: _445  and  _448
REMARK  190  A    between atoms: _451  and  _453
REMARK  191  A    between atoms: _453  and  _454
REMARK  192  A    between atoms: _453  and  _456
REMARK  193  A    between atoms: _456  and  _457
REMARK  194  A    between atoms: _460  and  _462
REMARK  195  A    between atoms: _462  and  _463
REMARK  196  A    between atoms: _462  and  _465
REMARK  197  A    between atoms: _465  and  _466
REMARK  198  A    between atoms: _469  and  _471
REMARK  199  A    between atoms: _471  and  _472
REMARK  200  A    between atoms: _471  and  _474
REMARK  201  A    between atoms: _474  and  _475
REMARK  202  A    between atoms: _480  and  _482
REMARK  203  A    between atoms: _482  and  _483
REMARK  204  A    between atoms: _482  and  _485
REMARK  205  A    between atoms: _485  and  _486
REMARK  206  A    between atoms: _491  and  _492
REMARK  207  A    between atoms: _494  and  _496
REMARK  208  A    between atoms: _496  and  _497
REMARK  209  A    between atoms: _496  and  _499
REMARK  210  A    between atoms: _499  and  _500
REMARK  211  A    between atoms: _500  and  _501
REMARK  212  A    between atoms: _503  and  _505
REMARK  213  A    between atoms: _505  and  _506
REMARK  214  A    between atoms: _505  and  _508
REMARK  215  A    between atoms: _508  and  _509
REMARK  216  A    between atoms: _512  and  _514
REMARK  217  A    between atoms: _514  and  _515
REMARK  218  A    between atoms: _514  and  _517
REMARK  219  A    between atoms: _517  and  _518
REMARK  220  A    between atoms: _520  and  _522
REMARK  221  A    between atoms: _522  and  _523
REMARK  222  A    between atoms: _522  and  _525
REMARK  223  A    between atoms: _525  and  _526
REMARK  224  A    between atoms: _531  and  _532
REMARK  225  A    between atoms: _534  and  _536
REMARK  226  A    between atoms: _536  and  _537
REMARK  227  A    between atoms: _536  and  _539
REMARK  228  A    between atoms: _539  and  _540
REMARK                            x       y       z     vdW  Elec       q    Type
REMARK                         _______ _______ _______ _____ _____    ______ ____
ROOT
ATOM      1  CA  SER A   1      13.780   1.159  19.553  0.00  0.00    +0.163 C 
ENDROOT
BRANCH   1   2
ATOM      2  N   SER A   1      14.154  -0.077  18.880  0.00  0.00    -0.237 NA
ATOM      3  H   SER A   1      14.683  -0.036  17.986  0.00  0.00    +0.142 HD
ENDBRANCH   1   2
BRANCH   1   4
ATOM      4  C   SER A   1      13.090   2.110  18.581  0.00  0.00    +0.227 C 
ATOM      5  O   SER A   1      13.432   2.170  17.399  0.00  0.00    -0.287 OA
ENDBRANCH   1   4
BRANCH   1   6
ATOM      6  CB  SER A   1      14.983   1.827  20.232  0.00  0.00    +0.162 C 
BRANCH   6   7
ATOM      7  OG  SER A   1      15.828   2.467  19.292  0.00  0.00    -0.380 OA
ATOM      8  H   SER A   1      15.316   3.164  18.810  0.00  0.00    +0.211 HD
ENDBRANCH   6   7
ENDBRANCH   1   6
TORSDOF 4
REMARK  Name = ../refined-set-2016/4qdk/4qdk_pocket.pdb
REMARK  228 active torsions:
REMARK  status: ('A' for Active; 'I' for Inactive)
REMARK    1  A    between atoms: _1  and  _3
REMARK    2  A    between atoms: _3  and  _4
REMARK    3  A    between atoms: _3  and  _6
REMARK    4  A    between atoms: _6  and  _7
REMARK    5  A    between atoms: _10  and  _12
REMARK    6  A    between atoms: _12  and  _13
REMARK    7  A    between atoms: _12  and  _15
REMARK    8  A    between atoms: _15  and  _16
REMARK    9  A    between atoms: _16  and  _17
REMARK   10  A    between atoms: _17  and  _18
REMARK   11  A    between atoms: _18  and  _19
REMARK   12  A    between atoms: _23  and  _25
REMARK   13  A    between atoms: _25  and  _26
REMARK   14  A    between atoms: _25  and  _28
REMARK   15  A    between atoms: _28  and  _29
REMARK   16  A    between atoms: _32  and  _34
REMARK   17  A    between atoms: _34  and  _35
REMARK   18  A    between atoms: _34  and  _37
REMARK   19  A    between atoms: _40  and  _42
REMARK   20  A    between atoms: _42  and  _43
REMARK   21  A    between atoms: _42  and  _45
REMARK   22  A    between atoms: _45  and  _46
REMARK   23  A    between atoms: _46  and  _47
REMARK   24  A    between atoms: _47  and  _48
REMARK   25  A    between atoms: _57  and  _59
REMARK   26  A    between atoms: _59  and  _60
REMARK   27  A    between atoms: _59  and  _62
REMARK   28  A    between atoms: _62  and  _63
REMARK   29  A    between atoms: _66  and  _68
REMARK   30  A    between atoms: _68  and  _69
REMARK   31  A    between atoms: _68  and  _71
REMARK   32  A    between atoms: _71  and  _72
REMARK   33  A    between atoms: _77  and  _78
REMARK   34  A    between atoms: _80  and  _82
REMARK   35  A    between atoms: _82  and  _83
REMARK   36  A    between atoms: _82  and  _85
REMARK   37  A    between atoms: _85  and  _86
REMARK   38  A    between atoms: _92  and  _94
REMARK   39  A    between atoms: _94  and  _95
REMARK   40  A    between atoms: _94  and  _97
REMARK   41  A    between atoms: _97  and  _98
REMARK   42  A    between atoms: _103  and  _105
REMARK   43  A    between atoms: _105  and  _106
REMARK   44  A    between atoms: _108  and  _110
REMARK   45  A    between atoms: _110  and  _111
REMARK   46  A    between atoms: _110  and  _113
REMARK   47  A    between atoms: _113  and  _114
REMARK   48  A    between atoms: _120  and  _122
REMARK   49  A    between atoms: _122  and  _123
REMARK   50  A    between atoms: _122  and  _125
REMARK   51  A    between atoms: _125  and  _126
REMARK   52  A    between atoms: _136  and  _138
REMARK   53  A    between atoms: _138  and  _139
REMARK   54  A    between atoms: _138  and  _141
REMARK   55  A    between atoms: _141  and  _142
REMARK   56  A    between atoms: _147  and  _148
REMARK   57  A    between atoms: _150  and  _152
REMARK   58  A    between atoms: _152  and  _153
REMARK   59  A    between atoms: _152  and  _155
REMARK   60  A    between atoms: _155  and  _156
REMARK   61  A    between atoms: _161  and  _163
REMARK   62  A    between atoms: _163  and  _164
REMARK   63  A    between atoms: _163  and  _166
REMARK   64  A    between atoms: _166  and  _167
REMARK   65  A    between atoms: _167  and  _168
REMARK   66  A    between atoms: _173  and  _175
REMARK   67  A    between atoms: _175  and  _176
REMARK   68  A    between atoms: _175  and  _178
REMARK   69  A    between atoms: _178  and  _179
REMARK   70  A    between atoms: _182  and  _184
REMARK   71  A    between atoms: _184  and  _185
REMARK   72  A    between atoms: _184  and  _187
REMARK   73  A    between atoms: _190  and  _192
REMARK   74  A    between atoms: _192  and  _193
REMARK   75  A    between atoms: _192  and  _195
REMARK   76  A    between atoms: _195  and  _196
REMARK   77  A    between atoms: _199  and  _201
REMARK   78  A    between atoms: _201  and  _202
REMARK   79  A    between atoms: _205  and  _207
REMARK   80  A    between atoms: _207  and  _208
REMARK   81  A    between atoms: _210  and  _212
REMARK   82  A    between atoms: _212  and  _213
REMARK   83  A    between atoms: _212  and  _215
REMARK   84  A    between atoms: _217  and  _219
REMARK   85  A    between atoms: _219  and  _220
REMARK   86  A    between atoms: _222  and  _224
REMARK   87  A    between atoms: _224  and  _225
REMARK   88  A    between atoms: _224  and  _227
REMARK   89  A    between atoms: _230  and  _232
REMARK   90  A    between atoms: _232  and  _233
REMARK   91  A    between atoms: _235  and  _237
REMARK   92  A    between atoms: _237  and  _238
REMARK   93  A    between atoms: _237  and  _240
REMARK   94  A    between atoms: _240  and  _241
REMARK   95  A    between atoms: _243  and  _245
REMARK   96  A    between atoms: _245  and  _246
REMARK   97  A    between atoms: _245  and  _248
REMARK   98  A    between atoms: _248  and  _249
REMARK   99  A    between atoms: _252  and  _254
REMARK  100  A    between atoms: _254  and  _255
REMARK  101  A    between atoms: _254  and  _257
REMARK  102  A    between atoms: _257  and  _258
REMARK  103  A    between atoms: _260  and  _262
REMARK  104  A    between atoms: _262  and  _263
REMARK  105  A    between atoms: _262  and  _265
REMARK  106  A    between atoms: _265  and  _266
REMARK  107  A    between atoms: _268  and  _270
REMARK  108  A    between atoms: _270  and  _271
REMARK  109  A    between atoms: _270  and  _273
REMARK  110  A    between atoms: _273  and  _274
REMARK  111  A    between atoms: _277  and  _279
REMARK  112  A    between atoms: _279  and  _280
REMARK  113  A    between atoms: _279  and  _282
REMARK  114  A    between atoms: _282  and  _283
REMARK  115  A    between atoms: _286  and  _288
REMARK  116  A    between atoms: _288  and  _289
REMARK  117  A    between atoms: _288  and  _291
REMARK  118  A    between atoms: _291  and  _292
REMARK  119  A    between atoms: _294  and  _296
REMARK  120  A    between atoms: _296  and  _297
REMARK  121  A    between atoms: _296  and  _299
REMARK  122  A    between atoms: _299  and  _300
REMARK  123  A    between atoms: _300  and  _301
REMARK  124  A    between atoms: _304  and  _306
REMARK  125  A    between atoms: _306  and  _307
REMARK  126  A    between atoms: _306  and  _309
REMARK  127  A    between atoms: _309  and  _310
REMARK  128  A    between atoms: _310  and  _311
REMARK  129  A    between atoms: _311  and  _312
REMARK  130  A    between atoms: _312  and  _313
REMARK  131  A    between atoms: _317  and  _319
REMARK  132  A    between atoms: _319  and  _320
REMARK  133  A    between atoms: _319  and  _322
REMARK  134  A    between atoms: _322  and  _323
REMARK  135  A    between atoms: _323  and  _324
REMARK  136  A    between atoms: _326  and  _328
REMARK  137  A    between atoms: _328  and  _329
REMARK  138  A    between atoms: _328  and  _331
REMARK  139  A    between atoms: _334  and  _336
REMARK  140  A    between atoms: _336  and  _337
REMARK  141  A    between atoms: _336  and  _339
REMARK  142  A    between atoms: _339  and  _340
REMARK  143  A    between atoms: _340  and  _341
REMARK  144  A    between atoms: _343  and  _345
REMARK  145  A    between atoms: _345  and  _346
REMARK  146  A    between atoms: _345  and  _348
REMARK  147  A    between atoms: _348  and  _349
REMARK  148  A    between atoms: _352  and  _354
REMARK  149  A    between atoms: _354  and  _355
REMARK  150  A    between atoms: _354  and  _357
REMARK  151  A    between atoms: _357  and  _358
REMARK  152  A    between atoms: _358  and  _359
REMARK  153  A    between atoms: _364  and  _366
REMARK  154  A    between atoms: _366  and  _367
REMARK  155  A    between atoms: _366  and  _369
REMARK  156  A    between atoms: _369  and  _370
REMARK  157  A    between atoms: _373  and  _375
REMARK  158  A    between atoms: _375  and  _376
REMARK  159  A    between atoms: _375  and  _378
REMARK  160  A    between atoms: _378  and  _379
REMARK  161  A    between atoms: _382  and  _384
REMARK  162  A    between atoms: _384  and  _385
REMARK  163  A    between atoms: _388  and  _390
REMARK  164  A    between atoms: _390  and  _391
REMARK  165  A    between atoms: _390  and  _393
REMARK  166  A    between atoms: _393  and  _394
REMARK  167  A    between atoms: _394  and  _395
REMARK  168  A    between atoms: _400  and  _402
REMARK  169  A    between atoms: _402  and  _403
REMARK  170  A    between atoms: _402  and  _405
REMARK  171  A    between atoms: _405  and  _406
REMARK  172  A    between atoms: _409  and  _411
REMARK  173  A    between atoms: _411  and  _412
REMARK  174  A    between atoms: _411  and  _414
REMARK  175  A    between atoms: _414  and  _415
REMARK  176  A    between atoms: _418  and  _420
REMARK  177  A    between atoms: _420  and  _421
REMARK  178  A    between atoms: _420  and  _423
REMARK  179  A    between atoms: _425  and  _427
REMARK  180  A    between atoms: _427  and  _428
REMARK  181  A    between atoms: _427  and  _430
REMARK  182  A    between atoms: _430  and  _431
REMARK  183  A    between atoms: _434  and  _436
REMARK  184  A    between atoms: _436  and  _437
REMARK  185  A    between atoms: _436  and  _439
REMARK  186  A    between atoms: _439  and  _440
REMARK  187  A    between atoms: _443  and  _445
REMARK  188  A    between atoms: _445  and  _446
REMARK  189  A    between atoms: _445  and  _448
REMARK  190  A    between atoms: _451  and  _453
REMARK  191  A    between atoms: _453  and  _454
REMARK  192  A    between atoms: _453  and  _456
REMARK  193  A    between atoms: _456  and  _457
REMARK  194  A    between atoms: _460  and  _462
REMARK  195  A    between atoms: _462  and  _463
REMARK  196  A    between atoms: _462  and  _465
REMARK  197  A    between atoms: _465  and  _466
REMARK  198  A    between atoms: _469  and  _471
REMARK  199  A    between atoms: _471  and  _472
REMARK  200  A    between atoms: _471  and  _474
REMARK  201  A    between atoms: _474  and  _475
REMARK  202  A    between atoms: _480  and  _482
REMARK  203  A    between atoms: _482  and  _483
REMARK  204  A    between atoms: _482  and  _485
REMARK  205  A    between atoms: _485  and  _486
REMARK  206  A    between atoms: _491  and  _492
REMARK  207  A    between atoms: _494  and  _496
REMARK  208  A    between atoms: _496  and  _497
REMARK  209  A    between atoms: _496  and  _499
REMARK  210  A    between atoms: _499  and  _500
REMARK  211  A    between atoms: _500  and  _501
REMARK  212  A    between atoms: _503  and  _505
REMARK  213  A    between atoms: _505  and  _506
REMARK  214  A    between atoms: _505  and  _508
REMARK  215  A    between atoms: _508  and  _509
REMARK  216  A    between atoms: _512  and  _514
REMARK  217  A    between atoms: _514  and  _515
REMARK  218  A    between atoms: _514  and  _517
REMARK  219  A    between atoms: _517  and  _518
REMARK  220  A    between atoms: _520  and  _522
REMARK  221  A    between atoms: _522  and  _523
REMARK  222  A    between atoms: _522  and  _525
REMARK  223  A    between atoms: _525  and  _526
REMARK  224  A    between atoms: _531  and  _532
REMARK  225  A    between atoms: _534  and  _536
REMARK  226  A    between atoms: _536  and  _537
REMARK  227  A    between atoms: _536  and  _539
REMARK  228  A    between atoms: _539  and  _540
REMARK                            x       y       z     vdW  Elec       q    Type
REMARK                         _______ _______ _______ _____ _____    ______ ____
ROOT
ATOM      1  CG  TYR A   1      16.817  10.745  22.972  0.00  0.00    -0.020 A 
ATOM      2  CD2 TYR A   1      16.580   9.693  23.851  0.00  0.00    -0.001 A 
ATOM      3  CE2 TYR A   1      16.861   8.386  23.497  0.00  0.00    +0.036 A 
ATOM      4  CZ  TYR A   1      17.396   8.113  22.257  0.00  0.00    +0.134 A 
ATOM      5  CE1 TYR A   1      17.648   9.134  21.366  0.00  0.00    +0.036 A 
ATOM      6  CD1 TYR A   1      17.361  10.444  21.727  0.00  0.00    -0.001 A 
ENDROOT
BRANCH   4   7
ATOM      7  OH  TYR A   1      17.673   6.807  21.915  0.00  0.00    -0.506 OA
ATOM      8  HH  TYR A   1      17.432   6.212  22.668  0.00  0.00    +0.292 HD
ENDBRANCH   4   7
BRANCH   1   9
ATOM      9  CB  TYR A   1      16.512  12.179  23.368  0.00  0.00    +0.051 C 
BRANCH   9  10
ATOM     10  CA  TYR A   1      15.073  12.634  23.095  0.00  0.00    +0.137 C 
BRANCH  10  11
ATOM     11  N   TYR A   1      14.873  14.000  23.572  0.00  0.00    -0.239 NA
ATOM     12  H   TYR A   1      14.769  14.169  24.593  0.00  0.00    +0.142 HD
ENDBRANCH  10  11
BRANCH  10  13
ATOM     13  C   TYR A   1      14.076  11.689  23.758  0.00  0.00    +0.224 C 
ATOM     14  O   TYR A   1      13.936  11.675  24.981  0.00  0.00    -0.287 OA
ENDBRANCH  10  13
ENDBRANCH   9  10
ENDBRANCH   1   9
TORSDOF 5
REMARK  Name = ../refined-set-2016/4qdk/4qdk_pocket.pdb
REMARK  228 active torsions:
REMARK  status: ('A' for Active; 'I' for Inactive)
REMARK    1  A    between atoms: _1  and  _3
REMARK    2  A    between atoms: _3  and  _4
REMARK    3  A    between atoms: _3  and  _6
REMARK    4  A    between atoms: _6  and  _7
REMARK    5  A    between atoms: _10  and  _12
REMARK    6  A    between atoms: _12  and  _13
REMARK    7  A    between atoms: _12  and  _15
REMARK    8  A    between atoms: _15  and  _16
REMARK    9  A    between atoms: _16  and  _17
REMARK   10  A    between atoms: _17  and  _18
REMARK   11  A    between atoms: _18  and  _19
REMARK   12  A    between atoms: _23  and  _25
REMARK   13  A    between atoms: _25  and  _26
REMARK   14  A    between atoms: _25  and  _28
REMARK   15  A    between atoms: _28  and  _29
REMARK   16  A    between atoms: _32  and  _34
REMARK   17  A    between atoms: _34  and  _35
REMARK   18  A    between atoms: _34  and  _37
REMARK   19  A    between atoms: _40  and  _42
REMARK   20  A    between atoms: _42  and  _43
REMARK   21  A    between atoms: _42  and  _45
REMARK   22  A    between atoms: _45  and  _46
REMARK   23  A    between atoms: _46  and  _47
REMARK   24  A    between atoms: _47  and  _48
REMARK   25  A    between atoms: _57  and  _59
REMARK   26  A    between atoms: _59  and  _60
REMARK   27  A    between atoms: _59  and  _62
REMARK   28  A    between atoms: _62  and  _63
REMARK   29  A    between atoms: _66  and  _68
REMARK   30  A    between atoms: _68  and  _69
REMARK   31  A    between atoms: _68  and  _71
REMARK   32  A    between atoms: _71  and  _72
REMARK   33  A    between atoms: _77  and  _78
REMARK   34  A    between atoms: _80  and  _82
REMARK   35  A    between atoms: _82  and  _83
REMARK   36  A    between atoms: _82  and  _85
REMARK   37  A    between atoms: _85  and  _86
REMARK   38  A    between atoms: _92  and  _94
REMARK   39  A    between atoms: _94  and  _95
REMARK   40  A    between atoms: _94  and  _97
REMARK   41  A    between atoms: _97  and  _98
REMARK   42  A    between atoms: _103  and  _105
REMARK   43  A    between atoms: _105  and  _106
REMARK   44  A    between atoms: _108  and  _110
REMARK   45  A    between atoms: _110  and  _111
REMARK   46  A    between atoms: _110  and  _113
REMARK   47  A    between atoms: _113  and  _114
REMARK   48  A    between atoms: _120  and  _122
REMARK   49  A    between atoms: _122  and  _123
REMARK   50  A    between atoms: _122  and  _125
REMARK   51  A    between atoms: _125  and  _126
REMARK   52  A    between atoms: _136  and  _138
REMARK   53  A    between atoms: _138  and  _139
REMARK   54  A    between atoms: _138  and  _141
REMARK   55  A    between atoms: _141  and  _142
REMARK   56  A    between atoms: _147  and  _148
REMARK   57  A    between atoms: _150  and  _152
REMARK   58  A    between atoms: _152  and  _153
REMARK   59  A    between atoms: _152  and  _155
REMARK   60  A    between atoms: _155  and  _156
REMARK   61  A    between atoms: _161  and  _163
REMARK   62  A    between atoms: _163  and  _164
REMARK   63  A    between atoms: _163  and  _166
REMARK   64  A    between atoms: _166  and  _167
REMARK   65  A    between atoms: _167  and  _168
REMARK   66  A    between atoms: _173  and  _175
REMARK   67  A    between atoms: _175  and  _176
REMARK   68  A    between atoms: _175  and  _178
REMARK   69  A    between atoms: _178  and  _179
REMARK   70  A    between atoms: _182  and  _184
REMARK   71  A    between atoms: _184  and  _185
REMARK   72  A    between atoms: _184  and  _187
REMARK   73  A    between atoms: _190  and  _192
REMARK   74  A    between atoms: _192  and  _193
REMARK   75  A    between atoms: _192  and  _195
REMARK   76  A    between atoms: _195  and  _196
REMARK   77  A    between atoms: _199  and  _201
REMARK   78  A    between atoms: _201  and  _202
REMARK   79  A    between atoms: _205  and  _207
REMARK   80  A    between atoms: _207  and  _208
REMARK   81  A    between atoms: _210  and  _212
REMARK   82  A    between atoms: _212  and  _213
REMARK   83  A    between atoms: _212  and  _215
REMARK   84  A    between atoms: _217  and  _219
REMARK   85  A    between atoms: _219  and  _220
REMARK   86  A    between atoms: _222  and  _224
REMARK   87  A    between atoms: _224  and  _225
REMARK   88  A    between atoms: _224  and  _227
REMARK   89  A    between atoms: _230  and  _232
REMARK   90  A    between atoms: _232  and  _233
REMARK   91  A    between atoms: _235  and  _237
REMARK   92  A    between atoms: _237  and  _238
REMARK   93  A    between atoms: _237  and  _240
REMARK   94  A    between atoms: _240  and  _241
REMARK   95  A    between atoms: _243  and  _245
REMARK   96  A    between atoms: _245  and  _246
REMARK   97  A    between atoms: _245  and  _248
REMARK   98  A    between atoms: _248  and  _249
REMARK   99  A    between atoms: _252  and  _254
REMARK  100  A    between atoms: _254  and  _255
REMARK  101  A    between atoms: _254  and  _257
REMARK  102  A    between atoms: _257  and  _258
REMARK  103  A    between atoms: _260  and  _262
REMARK  104  A    between atoms: _262  and  _263
REMARK  105  A    between atoms: _262  and  _265
REMARK  106  A    between atoms: _265  and  _266
REMARK  107  A    between atoms: _268  and  _270
REMARK  108  A    between atoms: _270  and  _271
REMARK  109  A    between atoms: _270  and  _273
REMARK  110  A    between atoms: _273  and  _274
REMARK  111  A    between atoms: _277  and  _279
REMARK  112  A    between atoms: _279  and  _280
REMARK  113  A    between atoms: _279  and  _282
REMARK  114  A    between atoms: _282  and  _283
REMARK  115  A    between atoms: _286  and  _288
REMARK  116  A    between atoms: _288  and  _289
REMARK  117  A    between atoms: _288  and  _291
REMARK  118  A    between atoms: _291  and  _292
REMARK  119  A    between atoms: _294  and  _296
REMARK  120  A    between atoms: _296  and  _297
REMARK  121  A    between atoms: _296  and  _299
REMARK  122  A    between atoms: _299  and  _300
REMARK  123  A    between atoms: _300  and  _301
REMARK  124  A    between atoms: _304  and  _306
REMARK  125  A    between atoms: _306  and  _307
REMARK  126  A    between atoms: _306  and  _309
REMARK  127  A    between atoms: _309  and  _310
REMARK  128  A    between atoms: _310  and  _311
REMARK  129  A    between atoms: _311  and  _312
REMARK  130  A    between atoms: _312  and  _313
REMARK  131  A    between atoms: _317  and  _319
REMARK  132  A    between atoms: _319  and  _320
REMARK  133  A    between atoms: _319  and  _322
REMARK  134  A    between atoms: _322  and  _323
REMARK  135  A    between atoms: _323  and  _324
REMARK  136  A    between atoms: _326  and  _328
REMARK  137  A    between atoms: _328  and  _329
REMARK  138  A    between atoms: _328  and  _331
REMARK  139  A    between atoms: _334  and  _336
REMARK  140  A    between atoms: _336  and  _337
REMARK  141  A    between atoms: _336  and  _339
REMARK  142  A    between atoms: _339  and  _340
REMARK  143  A    between atoms: _340  and  _341
REMARK  144  A    between atoms: _343  and  _345
REMARK  145  A    between atoms: _345  and  _346
REMARK  146  A    between atoms: _345  and  _348
REMARK  147  A    between atoms: _348  and  _349
REMARK  148  A    between atoms: _352  and  _354
REMARK  149  A    between atoms: _354  and  _355
REMARK  150  A    between atoms: _354  and  _357
REMARK  151  A    between atoms: _357  and  _358
REMARK  152  A    between atoms: _358  and  _359
REMARK  153  A    between atoms: _364  and  _366
REMARK  154  A    between atoms: _366  and  _367
REMARK  155  A    between atoms: _366  and  _369
REMARK  156  A    between atoms: _369  and  _370
REMARK  157  A    between atoms: _373  and  _375
REMARK  158  A    between atoms: _375  and  _376
REMARK  159  A    between atoms: _375  and  _378
REMARK  160  A    between atoms: _378  and  _379
REMARK  161  A    between atoms: _382  and  _384
REMARK  162  A    between atoms: _384  and  _385
REMARK  163  A    between atoms: _388  and  _390
REMARK  164  A    between atoms: _390  and  _391
REMARK  165  A    between atoms: _390  and  _393
REMARK  166  A    between atoms: _393  and  _394
REMARK  167  A    between atoms: _394  and  _395
REMARK  168  A    between atoms: _400  and  _402
REMARK  169  A    between atoms: _402  and  _403
REMARK  170  A    between atoms: _402  and  _405
REMARK  171  A    between atoms: _405  and  _406
REMARK  172  A    between atoms: _409  and  _411
REMARK  173  A    between atoms: _411  and  _412
REMARK  174  A    between atoms: _411  and  _414
REMARK  175  A    between atoms: _414  and  _415
REMARK  176  A    between atoms: _418  and  _420
REMARK  177  A    between atoms: _420  and  _421
REMARK  178  A    between atoms: _420  and  _423
REMARK  179  A    between atoms: _425  and  _427
REMARK  180  A    between atoms: _427  and  _428
REMARK  181  A    between atoms: _427  and  _430
REMARK  182  A    between atoms: _430  and  _431
REMARK  183  A    between atoms: _434  and  _436
REMARK  184  A    between atoms: _436  and  _437
REMARK  185  A    between atoms: _436  and  _439
REMARK  186  A    between atoms: _439  and  _440
REMARK  187  A    between atoms: _443  and  _445
REMARK  188  A    between atoms: _445  and  _446
REMARK  189  A    between atoms: _445  and  _448
REMARK  190  A    between atoms: _451  and  _453
REMARK  191  A    between atoms: _453  and  _454
REMARK  192  A    between atoms: _453  and  _456
REMARK  193  A    between atoms: _456  and  _457
REMARK  194  A    between atoms: _460  and  _462
REMARK  195  A    between atoms: _462  and  _463
REMARK  196  A    between atoms: _462  and  _465
REMARK  197  A    between atoms: _465  and  _466
REMARK  198  A    between atoms: _469  and  _471
REMARK  199  A    between atoms: _471  and  _472
REMARK  200  A    between atoms: _471  and  _474
REMARK  201  A    between atoms: _474  and  _475
REMARK  202  A    between atoms: _480  and  _482
REMARK  203  A    between atoms: _482  and  _483
REMARK  204  A    between atoms: _482  and  _485
REMARK  205  A    between atoms: _485  and  _486
REMARK  206  A    between atoms: _491  and  _492
REMARK  207  A    between atoms: _494  and  _496
REMARK  208  A    between atoms: _496  and  _497
REMARK  209  A    between atoms: _496  and  _499
REMARK  210  A    between atoms: _499  and  _500
REMARK  211  A    between atoms: _500  and  _501
REMARK  212  A    between atoms: _503  and  _505
REMARK  213  A    between atoms: _505  and  _506
REMARK  214  A    between atoms: _505  and  _508
REMARK  215  A    between atoms: _508  and  _509
REMARK  216  A    between atoms: _512  and  _514
REMARK  217  A    between atoms: _514  and  _515
REMARK  218  A    between atoms: _514  and  _517
REMARK  219  A    between atoms: _517  and  _518
REMARK  220  A    between atoms: _520  and  _522
REMARK  221  A    between atoms: _522  and  _523
REMARK  222  A    between atoms: _522  and  _525
REMARK  223  A    between atoms: _525  and  _526
REMARK  224  A    between atoms: _531  and  _532
REMARK  225  A    between atoms: _534  and  _536
REMARK  226  A    between atoms: _536  and  _537
REMARK  227  A    between atoms: _536  and  _539
REMARK  228  A    between atoms: _539  and  _540
REMARK                            x       y       z     vdW  Elec       q    Type
REMARK                         _______ _______ _______ _____ _____    ______ ____
ROOT
ATOM      1  CA  SER A   1      12.945   6.281  22.718  0.00  0.00    +0.163 C 
ENDROOT
BRANCH   1   2
ATOM      2  N   SER A   1      12.787   7.570  23.376  0.00  0.00    -0.237 NA
ATOM      3  H   SER A   1      12.927   7.642  24.404  0.00  0.00    +0.142 HD
ENDBRANCH   1   2
BRANCH   1   4
ATOM      4  CB  SER A   1      12.366   5.132  23.539  0.00  0.00    +0.227 C 
ATOM      5  OG  SER A   1      12.751   4.914  24.690  0.00  0.00    -0.287 OA
ENDBRANCH   1   4
BRANCH   1   6
ATOM      6  C   SER A   1      14.422   6.019  22.404  0.00  0.00    +0.162 C 
BRANCH   6   7
ATOM      7  O   SER A   1      14.576   4.874  21.579  0.00  0.00    -0.380 OA
ATOM      8  H   SER A   1      15.538   4.730  21.393  0.00  0.00    +0.211 HD
ENDBRANCH   6   7
ENDBRANCH   1   6
TORSDOF 4
REMARK  Name = ../refined-set-2016/4qdk/4qdk_pocket.pdb
REMARK  228 active torsions:
REMARK  status: ('A' for Active; 'I' for Inactive)
REMARK    1  A    between atoms: _1  and  _3
REMARK    2  A    between atoms: _3  and  _4
REMARK    3  A    between atoms: _3  and  _6
REMARK    4  A    between atoms: _6  and  _7
REMARK    5  A    between atoms: _10  and  _12
REMARK    6  A    between atoms: _12  and  _13
REMARK    7  A    between atoms: _12  and  _15
REMARK    8  A    between atoms: _15  and  _16
REMARK    9  A    between atoms: _16  and  _17
REMARK   10  A    between atoms: _17  and  _18
REMARK   11  A    between atoms: _18  and  _19
REMARK   12  A    between atoms: _23  and  _25
REMARK   13  A    between atoms: _25  and  _26
REMARK   14  A    between atoms: _25  and  _28
REMARK   15  A    between atoms: _28  and  _29
REMARK   16  A    between atoms: _32  and  _34
REMARK   17  A    between atoms: _34  and  _35
REMARK   18  A    between atoms: _34  and  _37
REMARK   19  A    between atoms: _40  and  _42
REMARK   20  A    between atoms: _42  and  _43
REMARK   21  A    between atoms: _42  and  _45
REMARK   22  A    between atoms: _45  and  _46
REMARK   23  A    between atoms: _46  and  _47
REMARK   24  A    between atoms: _47  and  _48
REMARK   25  A    between atoms: _57  and  _59
REMARK   26  A    between atoms: _59  and  _60
REMARK   27  A    between atoms: _59  and  _62
REMARK   28  A    between atoms: _62  and  _63
REMARK   29  A    between atoms: _66  and  _68
REMARK   30  A    between atoms: _68  and  _69
REMARK   31  A    between atoms: _68  and  _71
REMARK   32  A    between atoms: _71  and  _72
REMARK   33  A    between atoms: _77  and  _78
REMARK   34  A    between atoms: _80  and  _82
REMARK   35  A    between atoms: _82  and  _83
REMARK   36  A    between atoms: _82  and  _85
REMARK   37  A    between atoms: _85  and  _86
REMARK   38  A    between atoms: _92  and  _94
REMARK   39  A    between atoms: _94  and  _95
REMARK   40  A    between atoms: _94  and  _97
REMARK   41  A    between atoms: _97  and  _98
REMARK   42  A    between atoms: _103  and  _105
REMARK   43  A    between atoms: _105  and  _106
REMARK   44  A    between atoms: _108  and  _110
REMARK   45  A    between atoms: _110  and  _111
REMARK   46  A    between atoms: _110  and  _113
REMARK   47  A    between atoms: _113  and  _114
REMARK   48  A    between atoms: _120  and  _122
REMARK   49  A    between atoms: _122  and  _123
REMARK   50  A    between atoms: _122  and  _125
REMARK   51  A    between atoms: _125  and  _126
REMARK   52  A    between atoms: _136  and  _138
REMARK   53  A    between atoms: _138  and  _139
REMARK   54  A    between atoms: _138  and  _141
REMARK   55  A    between atoms: _141  and  _142
REMARK   56  A    between atoms: _147  and  _148
REMARK   57  A    between atoms: _150  and  _152
REMARK   58  A    between atoms: _152  and  _153
REMARK   59  A    between atoms: _152  and  _155
REMARK   60  A    between atoms: _155  and  _156
REMARK   61  A    between atoms: _161  and  _163
REMARK   62  A    between atoms: _163  and  _164
REMARK   63  A    between atoms: _163  and  _166
REMARK   64  A    between atoms: _166  and  _167
REMARK   65  A    between atoms: _167  and  _168
REMARK   66  A    between atoms: _173  and  _175
REMARK   67  A    between atoms: _175  and  _176
REMARK   68  A    between atoms: _175  and  _178
REMARK   69  A    between atoms: _178  and  _179
REMARK   70  A    between atoms: _182  and  _184
REMARK   71  A    between atoms: _184  and  _185
REMARK   72  A    between atoms: _184  and  _187
REMARK   73  A    between atoms: _190  and  _192
REMARK   74  A    between atoms: _192  and  _193
REMARK   75  A    between atoms: _192  and  _195
REMARK   76  A    between atoms: _195  and  _196
REMARK   77  A    between atoms: _199  and  _201
REMARK   78  A    between atoms: _201  and  _202
REMARK   79  A    between atoms: _205  and  _207
REMARK   80  A    between atoms: _207  and  _208
REMARK   81  A    between atoms: _210  and  _212
REMARK   82  A    between atoms: _212  and  _213
REMARK   83  A    between atoms: _212  and  _215
REMARK   84  A    between atoms: _217  and  _219
REMARK   85  A    between atoms: _219  and  _220
REMARK   86  A    between atoms: _222  and  _224
REMARK   87  A    between atoms: _224  and  _225
REMARK   88  A    between atoms: _224  and  _227
REMARK   89  A    between atoms: _230  and  _232
REMARK   90  A    between atoms: _232  and  _233
REMARK   91  A    between atoms: _235  and  _237
REMARK   92  A    between atoms: _237  and  _238
REMARK   93  A    between atoms: _237  and  _240
REMARK   94  A    between atoms: _240  and  _241
REMARK   95  A    between atoms: _243  and  _245
REMARK   96  A    between atoms: _245  and  _246
REMARK   97  A    between atoms: _245  and  _248
REMARK   98  A    between atoms: _248  and  _249
REMARK   99  A    between atoms: _252  and  _254
REMARK  100  A    between atoms: _254  and  _255
REMARK  101  A    between atoms: _254  and  _257
REMARK  102  A    between atoms: _257  and  _258
REMARK  103  A    between atoms: _260  and  _262
REMARK  104  A    between atoms: _262  and  _263
REMARK  105  A    between atoms: _262  and  _265
REMARK  106  A    between atoms: _265  and  _266
REMARK  107  A    between atoms: _268  and  _270
REMARK  108  A    between atoms: _270  and  _271
REMARK  109  A    between atoms: _270  and  _273
REMARK  110  A    between atoms: _273  and  _274
REMARK  111  A    between atoms: _277  and  _279
REMARK  112  A    between atoms: _279  and  _280
REMARK  113  A    between atoms: _279  and  _282
REMARK  114  A    between atoms: _282  and  _283
REMARK  115  A    between atoms: _286  and  _288
REMARK  116  A    between atoms: _288  and  _289
REMARK  117  A    between atoms: _288  and  _291
REMARK  118  A    between atoms: _291  and  _292
REMARK  119  A    between atoms: _294  and  _296
REMARK  120  A    between atoms: _296  and  _297
REMARK  121  A    between atoms: _296  and  _299
REMARK  122  A    between atoms: _299  and  _300
REMARK  123  A    between atoms: _300  and  _301
REMARK  124  A    between atoms: _304  and  _306
REMARK  125  A    between atoms: _306  and  _307
REMARK  126  A    between atoms: _306  and  _309
REMARK  127  A    between atoms: _309  and  _310
REMARK  128  A    between atoms: _310  and  _311
REMARK  129  A    between atoms: _311  and  _312
REMARK  130  A    between atoms: _312  and  _313
REMARK  131  A    between atoms: _317  and  _319
REMARK  132  A    between atoms: _319  and  _320
REMARK  133  A    between atoms: _319  and  _322
REMARK  134  A    between atoms: _322  and  _323
REMARK  135  A    between atoms: _323  and  _324
REMARK  136  A    between atoms: _326  and  _328
REMARK  137  A    between atoms: _328  and  _329
REMARK  138  A    between atoms: _328  and  _331
REMARK  139  A    between atoms: _334  and  _336
REMARK  140  A    between atoms: _336  and  _337
REMARK  141  A    between atoms: _336  and  _339
REMARK  142  A    between atoms: _339  and  _340
REMARK  143  A    between atoms: _340  and  _341
REMARK  144  A    between atoms: _343  and  _345
REMARK  145  A    between atoms: _345  and  _346
REMARK  146  A    between atoms: _345  and  _348
REMARK  147  A    between atoms: _348  and  _349
REMARK  148  A    between atoms: _352  and  _354
REMARK  149  A    between atoms: _354  and  _355
REMARK  150  A    between atoms: _354  and  _357
REMARK  151  A    between atoms: _357  and  _358
REMARK  152  A    between atoms: _358  and  _359
REMARK  153  A    between atoms: _364  and  _366
REMARK  154  A    between atoms: _366  and  _367
REMARK  155  A    between atoms: _366  and  _369
REMARK  156  A    between atoms: _369  and  _370
REMARK  157  A    between atoms: _373  and  _375
REMARK  158  A    between atoms: _375  and  _376
REMARK  159  A    between atoms: _375  and  _378
REMARK  160  A    between atoms: _378  and  _379
REMARK  161  A    between atoms: _382  and  _384
REMARK  162  A    between atoms: _384  and  _385
REMARK  163  A    between atoms: _388  and  _390
REMARK  164  A    between atoms: _390  and  _391
REMARK  165  A    between atoms: _390  and  _393
REMARK  166  A    between atoms: _393  and  _394
REMARK  167  A    between atoms: _394  and  _395
REMARK  168  A    between atoms: _400  and  _402
REMARK  169  A    between atoms: _402  and  _403
REMARK  170  A    between atoms: _402  and  _405
REMARK  171  A    between atoms: _405  and  _406
REMARK  172  A    between atoms: _409  and  _411
REMARK  173  A    between atoms: _411  and  _412
REMARK  174  A    between atoms: _411  and  _414
REMARK  175  A    between atoms: _414  and  _415
REMARK  176  A    between atoms: _418  and  _420
REMARK  177  A    between atoms: _420  and  _421
REMARK  178  A    between atoms: _420  and  _423
REMARK  179  A    between atoms: _425  and  _427
REMARK  180  A    between atoms: _427  and  _428
REMARK  181  A    between atoms: _427  and  _430
REMARK  182  A    between atoms: _430  and  _431
REMARK  183  A    between atoms: _434  and  _436
REMARK  184  A    between atoms: _436  and  _437
REMARK  185  A    between atoms: _436  and  _439
REMARK  186  A    between atoms: _439  and  _440
REMARK  187  A    between atoms: _443  and  _445
REMARK  188  A    between atoms: _445  and  _446
REMARK  189  A    between atoms: _445  and  _448
REMARK  190  A    between atoms: _451  and  _453
REMARK  191  A    between atoms: _453  and  _454
REMARK  192  A    between atoms: _453  and  _456
REMARK  193  A    between atoms: _456  and  _457
REMARK  194  A    between atoms: _460  and  _462
REMARK  195  A    between atoms: _462  and  _463
REMARK  196  A    between atoms: _462  and  _465
REMARK  197  A    between atoms: _465  and  _466
REMARK  198  A    between atoms: _469  and  _471
REMARK  199  A    between atoms: _471  and  _472
REMARK  200  A    between atoms: _471  and  _474
REMARK  201  A    between atoms: _474  and  _475
REMARK  202  A    between atoms: _480  and  _482
REMARK  203  A    between atoms: _482  and  _483
REMARK  204  A    between atoms: _482  and  _485
REMARK  205  A    between atoms: _485  and  _486
REMARK  206  A    between atoms: _491  and  _492
REMARK  207  A    between atoms: _494  and  _496
REMARK  208  A    between atoms: _496  and  _497
REMARK  209  A    between atoms: _496  and  _499
REMARK  210  A    between atoms: _499  and  _500
REMARK  211  A    between atoms: _500  and  _501
REMARK  212  A    between atoms: _503  and  _505
REMARK  213  A    between atoms: _505  and  _506
REMARK  214  A    between atoms: _505  and  _508
REMARK  215  A    between atoms: _508  and  _509
REMARK  216  A    between atoms: _512  and  _514
REMARK  217  A    between atoms: _514  and  _515
REMARK  218  A    between atoms: _514  and  _517
REMARK  219  A    between atoms: _517  and  _518
REMARK  220  A    between atoms: _520  and  _522
REMARK  221  A    between atoms: _522  and  _523
REMARK  222  A    between atoms: _522  and  _525
REMARK  223  A    between atoms: _525  and  _526
REMARK  224  A    between atoms: _531  and  _532
REMARK  225  A    between atoms: _534  and  _536
REMARK  226  A    between atoms: _536  and  _537
REMARK  227  A    between atoms: _536  and  _539
REMARK  228  A    between atoms: _539  and  _540
REMARK                            x       y       z     vdW  Elec       q    Type
REMARK                         _______ _______ _______ _____ _____    ______ ____
ROOT
ATOM      1  O   HOH     1      22.943   0.589  17.326  0.00  0.00    +0.000 OA
ENDROOT
TORSDOF 0
REMARK  Name = ../refined-set-2016/4qdk/4qdk_pocket.pdb
REMARK  228 active torsions:
REMARK  status: ('A' for Active; 'I' for Inactive)
REMARK    1  A    between atoms: _1  and  _3
REMARK    2  A    between atoms: _3  and  _4
REMARK    3  A    between atoms: _3  and  _6
REMARK    4  A    between atoms: _6  and  _7
REMARK    5  A    between atoms: _10  and  _12
REMARK    6  A    between atoms: _12  and  _13
REMARK    7  A    between atoms: _12  and  _15
REMARK    8  A    between atoms: _15  and  _16
REMARK    9  A    between atoms: _16  and  _17
REMARK   10  A    between atoms: _17  and  _18
REMARK   11  A    between atoms: _18  and  _19
REMARK   12  A    between atoms: _23  and  _25
REMARK   13  A    between atoms: _25  and  _26
REMARK   14  A    between atoms: _25  and  _28
REMARK   15  A    between atoms: _28  and  _29
REMARK   16  A    between atoms: _32  and  _34
REMARK   17  A    between atoms: _34  and  _35
REMARK   18  A    between atoms: _34  and  _37
REMARK   19  A    between atoms: _40  and  _42
REMARK   20  A    between atoms: _42  and  _43
REMARK   21  A    between atoms: _42  and  _45
REMARK   22  A    between atoms: _45  and  _46
REMARK   23  A    between atoms: _46  and  _47
REMARK   24  A    between atoms: _47  and  _48
REMARK   25  A    between atoms: _57  and  _59
REMARK   26  A    between atoms: _59  and  _60
REMARK   27  A    between atoms: _59  and  _62
REMARK   28  A    between atoms: _62  and  _63
REMARK   29  A    between atoms: _66  and  _68
REMARK   30  A    between atoms: _68  and  _69
REMARK   31  A    between atoms: _68  and  _71
REMARK   32  A    between atoms: _71  and  _72
REMARK   33  A    between atoms: _77  and  _78
REMARK   34  A    between atoms: _80  and  _82
REMARK   35  A    between atoms: _82  and  _83
REMARK   36  A    between atoms: _82  and  _85
REMARK   37  A    between atoms: _85  and  _86
REMARK   38  A    between atoms: _92  and  _94
REMARK   39  A    between atoms: _94  and  _95
REMARK   40  A    between atoms: _94  and  _97
REMARK   41  A    between atoms: _97  and  _98
REMARK   42  A    between atoms: _103  and  _105
REMARK   43  A    between atoms: _105  and  _106
REMARK   44  A    between atoms: _108  and  _110
REMARK   45  A    between atoms: _110  and  _111
REMARK   46  A    between atoms: _110  and  _113
REMARK   47  A    between atoms: _113  and  _114
REMARK   48  A    between atoms: _120  and  _122
REMARK   49  A    between atoms: _122  and  _123
REMARK   50  A    between atoms: _122  and  _125
REMARK   51  A    between atoms: _125  and  _126
REMARK   52  A    between atoms: _136  and  _138
REMARK   53  A    between atoms: _138  and  _139
REMARK   54  A    between atoms: _138  and  _141
REMARK   55  A    between atoms: _141  and  _142
REMARK   56  A    between atoms: _147  and  _148
REMARK   57  A    between atoms: _150  and  _152
REMARK   58  A    between atoms: _152  and  _153
REMARK   59  A    between atoms: _152  and  _155
REMARK   60  A    between atoms: _155  and  _156
REMARK   61  A    between atoms: _161  and  _163
REMARK   62  A    between atoms: _163  and  _164
REMARK   63  A    between atoms: _163  and  _166
REMARK   64  A    between atoms: _166  and  _167
REMARK   65  A    between atoms: _167  and  _168
REMARK   66  A    between atoms: _173  and  _175
REMARK   67  A    between atoms: _175  and  _176
REMARK   68  A    between atoms: _175  and  _178
REMARK   69  A    between atoms: _178  and  _179
REMARK   70  A    between atoms: _182  and  _184
REMARK   71  A    between atoms: _184  and  _185
REMARK   72  A    between atoms: _184  and  _187
REMARK   73  A    between atoms: _190  and  _192
REMARK   74  A    between atoms: _192  and  _193
REMARK   75  A    between atoms: _192  and  _195
REMARK   76  A    between atoms: _195  and  _196
REMARK   77  A    between atoms: _199  and  _201
REMARK   78  A    between atoms: _201  and  _202
REMARK   79  A    between atoms: _205  and  _207
REMARK   80  A    between atoms: _207  and  _208
REMARK   81  A    between atoms: _210  and  _212
REMARK   82  A    between atoms: _212  and  _213
REMARK   83  A    between atoms: _212  and  _215
REMARK   84  A    between atoms: _217  and  _219
REMARK   85  A    between atoms: _219  and  _220
REMARK   86  A    between atoms: _222  and  _224
REMARK   87  A    between atoms: _224  and  _225
REMARK   88  A    between atoms: _224  and  _227
REMARK   89  A    between atoms: _230  and  _232
REMARK   90  A    between atoms: _232  and  _233
REMARK   91  A    between atoms: _235  and  _237
REMARK   92  A    between atoms: _237  and  _238
REMARK   93  A    between atoms: _237  and  _240
REMARK   94  A    between atoms: _240  and  _241
REMARK   95  A    between atoms: _243  and  _245
REMARK   96  A    between atoms: _245  and  _246
REMARK   97  A    between atoms: _245  and  _248
REMARK   98  A    between atoms: _248  and  _249
REMARK   99  A    between atoms: _252  and  _254
REMARK  100  A    between atoms: _254  and  _255
REMARK  101  A    between atoms: _254  and  _257
REMARK  102  A    between atoms: _257  and  _258
REMARK  103  A    between atoms: _260  and  _262
REMARK  104  A    between atoms: _262  and  _263
REMARK  105  A    between atoms: _262  and  _265
REMARK  106  A    between atoms: _265  and  _266
REMARK  107  A    between atoms: _268  and  _270
REMARK  108  A    between atoms: _270  and  _271
REMARK  109  A    between atoms: _270  and  _273
REMARK  110  A    between atoms: _273  and  _274
REMARK  111  A    between atoms: _277  and  _279
REMARK  112  A    between atoms: _279  and  _280
REMARK  113  A    between atoms: _279  and  _282
REMARK  114  A    between atoms: _282  and  _283
REMARK  115  A    between atoms: _286  and  _288
REMARK  116  A    between atoms: _288  and  _289
REMARK  117  A    between atoms: _288  and  _291
REMARK  118  A    between atoms: _291  and  _292
REMARK  119  A    between atoms: _294  and  _296
REMARK  120  A    between atoms: _296  and  _297
REMARK  121  A    between atoms: _296  and  _299
REMARK  122  A    between atoms: _299  and  _300
REMARK  123  A    between atoms: _300  and  _301
REMARK  124  A    between atoms: _304  and  _306
REMARK  125  A    between atoms: _306  and  _307
REMARK  126  A    between atoms: _306  and  _309
REMARK  127  A    between atoms: _309  and  _310
REMARK  128  A    between atoms: _310  and  _311
REMARK  129  A    between atoms: _311  and  _312
REMARK  130  A    between atoms: _312  and  _313
REMARK  131  A    between atoms: _317  and  _319
REMARK  132  A    between atoms: _319  and  _320
REMARK  133  A    between atoms: _319  and  _322
REMARK  134  A    between atoms: _322  and  _323
REMARK  135  A    between atoms: _323  and  _324
REMARK  136  A    between atoms: _326  and  _328
REMARK  137  A    between atoms: _328  and  _329
REMARK  138  A    between atoms: _328  and  _331
REMARK  139  A    between atoms: _334  and  _336
REMARK  140  A    between atoms: _336  and  _337
REMARK  141  A    between atoms: _336  and  _339
REMARK  142  A    between atoms: _339  and  _340
REMARK  143  A    between atoms: _340  and  _341
REMARK  144  A    between atoms: _343  and  _345
REMARK  145  A    between atoms: _345  and  _346
REMARK  146  A    between atoms: _345  and  _348
REMARK  147  A    between atoms: _348  and  _349
REMARK  148  A    between atoms: _352  and  _354
REMARK  149  A    between atoms: _354  and  _355
REMARK  150  A    between atoms: _354  and  _357
REMARK  151  A    between atoms: _357  and  _358
REMARK  152  A    between atoms: _358  and  _359
REMARK  153  A    between atoms: _364  and  _366
REMARK  154  A    between atoms: _366  and  _367
REMARK  155  A    between atoms: _366  and  _369
REMARK  156  A    between atoms: _369  and  _370
REMARK  157  A    between atoms: _373  and  _375
REMARK  158  A    between atoms: _375  and  _376
REMARK  159  A    between atoms: _375  and  _378
REMARK  160  A    between atoms: _378  and  _379
REMARK  161  A    between atoms: _382  and  _384
REMARK  162  A    between atoms: _384  and  _385
REMARK  163  A    between atoms: _388  and  _390
REMARK  164  A    between atoms: _390  and  _391
REMARK  165  A    between atoms: _390  and  _393
REMARK  166  A    between atoms: _393  and  _394
REMARK  167  A    between atoms: _394  and  _395
REMARK  168  A    between atoms: _400  and  _402
REMARK  169  A    between atoms: _402  and  _403
REMARK  170  A    between atoms: _402  and  _405
REMARK  171  A    between atoms: _405  and  _406
REMARK  172  A    between atoms: _409  and  _411
REMARK  173  A    between atoms: _411  and  _412
REMARK  174  A    between atoms: _411  and  _414
REMARK  175  A    between atoms: _414  and  _415
REMARK  176  A    between atoms: _418  and  _420
REMARK  177  A    between atoms: _420  and  _421
REMARK  178  A    between atoms: _420  and  _423
REMARK  179  A    between atoms: _425  and  _427
REMARK  180  A    between atoms: _427  and  _428
REMARK  181  A    between atoms: _427  and  _430
REMARK  182  A    between atoms: _430  and  _431
REMARK  183  A    between atoms: _434  and  _436
REMARK  184  A    between atoms: _436  and  _437
REMARK  185  A    between atoms: _436  and  _439
REMARK  186  A    between atoms: _439  and  _440
REMARK  187  A    between atoms: _443  and  _445
REMARK  188  A    between atoms: _445  and  _446
REMARK  189  A    between atoms: _445  and  _448
REMARK  190  A    between atoms: _451  and  _453
REMARK  191  A    between atoms: _453  and  _454
REMARK  192  A    between atoms: _453  and  _456
REMARK  193  A    between atoms: _456  and  _457
REMARK  194  A    between atoms: _460  and  _462
REMARK  195  A    between atoms: _462  and  _463
REMARK  196  A    between atoms: _462  and  _465
REMARK  197  A    between atoms: _465  and  _466
REMARK  198  A    between atoms: _469  and  _471
REMARK  199  A    between atoms: _471  and  _472
REMARK  200  A    between atoms: _471  and  _474
REMARK  201  A    between atoms: _474  and  _475
REMARK  202  A    between atoms: _480  and  _482
REMARK  203  A    between atoms: _482  and  _483
REMARK  204  A    between atoms: _482  and  _485
REMARK  205  A    between atoms: _485  and  _486
REMARK  206  A    between atoms: _491  and  _492
REMARK  207  A    between atoms: _494  and  _496
REMARK  208  A    between atoms: _496  and  _497
REMARK  209  A    between atoms: _496  and  _499
REMARK  210  A    between atoms: _499  and  _500
REMARK  211  A    between atoms: _500  and  _501
REMARK  212  A    between atoms: _503  and  _505
REMARK  213  A    between atoms: _505  and  _506
REMARK  214  A    between atoms: _505  and  _508
REMARK  215  A    between atoms: _508  and  _509
REMARK  216  A    between atoms: _512  and  _514
REMARK  217  A    between atoms: _514  and  _515
REMARK  218  A    between atoms: _514  and  _517
REMARK  219  A    between atoms: _517  and  _518
REMARK  220  A    between atoms: _520  and  _522
REMARK  221  A    between atoms: _522  and  _523
REMARK  222  A    between atoms: _522  and  _525
REMARK  223  A    between atoms: _525  and  _526
REMARK  224  A    between atoms: _531  and  _532
REMARK  225  A    between atoms: _534  and  _536
REMARK  226  A    between atoms: _536  and  _537
REMARK  227  A    between atoms: _536  and  _539
REMARK  228  A    between atoms: _539  and  _540
REMARK                            x       y       z     vdW  Elec       q    Type
REMARK                         _______ _______ _______ _____ _____    ______ ____
ROOT
ATOM      1  O   HOH     1      14.844   1.471  15.232  0.00  0.00    +0.000 OA
ENDROOT
TORSDOF 0
REMARK  Name = ../refined-set-2016/4qdk/4qdk_pocket.pdb
REMARK  228 active torsions:
REMARK  status: ('A' for Active; 'I' for Inactive)
REMARK    1  A    between atoms: _1  and  _3
REMARK    2  A    between atoms: _3  and  _4
REMARK    3  A    between atoms: _3  and  _6
REMARK    4  A    between atoms: _6  and  _7
REMARK    5  A    between atoms: _10  and  _12
REMARK    6  A    between atoms: _12  and  _13
REMARK    7  A    between atoms: _12  and  _15
REMARK    8  A    between atoms: _15  and  _16
REMARK    9  A    between atoms: _16  and  _17
REMARK   10  A    between atoms: _17  and  _18
REMARK   11  A    between atoms: _18  and  _19
REMARK   12  A    between atoms: _23  and  _25
REMARK   13  A    between atoms: _25  and  _26
REMARK   14  A    between atoms: _25  and  _28
REMARK   15  A    between atoms: _28  and  _29
REMARK   16  A    between atoms: _32  and  _34
REMARK   17  A    between atoms: _34  and  _35
REMARK   18  A    between atoms: _34  and  _37
REMARK   19  A    between atoms: _40  and  _42
REMARK   20  A    between atoms: _42  and  _43
REMARK   21  A    between atoms: _42  and  _45
REMARK   22  A    between atoms: _45  and  _46
REMARK   23  A    between atoms: _46  and  _47
REMARK   24  A    between atoms: _47  and  _48
REMARK   25  A    between atoms: _57  and  _59
REMARK   26  A    between atoms: _59  and  _60
REMARK   27  A    between atoms: _59  and  _62
REMARK   28  A    between atoms: _62  and  _63
REMARK   29  A    between atoms: _66  and  _68
REMARK   30  A    between atoms: _68  and  _69
REMARK   31  A    between atoms: _68  and  _71
REMARK   32  A    between atoms: _71  and  _72
REMARK   33  A    between atoms: _77  and  _78
REMARK   34  A    between atoms: _80  and  _82
REMARK   35  A    between atoms: _82  and  _83
REMARK   36  A    between atoms: _82  and  _85
REMARK   37  A    between atoms: _85  and  _86
REMARK   38  A    between atoms: _92  and  _94
REMARK   39  A    between atoms: _94  and  _95
REMARK   40  A    between atoms: _94  and  _97
REMARK   41  A    between atoms: _97  and  _98
REMARK   42  A    between atoms: _103  and  _105
REMARK   43  A    between atoms: _105  and  _106
REMARK   44  A    between atoms: _108  and  _110
REMARK   45  A    between atoms: _110  and  _111
REMARK   46  A    between atoms: _110  and  _113
REMARK   47  A    between atoms: _113  and  _114
REMARK   48  A    between atoms: _120  and  _122
REMARK   49  A    between atoms: _122  and  _123
REMARK   50  A    between atoms: _122  and  _125
REMARK   51  A    between atoms: _125  and  _126
REMARK   52  A    between atoms: _136  and  _138
REMARK   53  A    between atoms: _138  and  _139
REMARK   54  A    between atoms: _138  and  _141
REMARK   55  A    between atoms: _141  and  _142
REMARK   56  A    between atoms: _147  and  _148
REMARK   57  A    between atoms: _150  and  _152
REMARK   58  A    between atoms: _152  and  _153
REMARK   59  A    between atoms: _152  and  _155
REMARK   60  A    between atoms: _155  and  _156
REMARK   61  A    between atoms: _161  and  _163
REMARK   62  A    between atoms: _163  and  _164
REMARK   63  A    between atoms: _163  and  _166
REMARK   64  A    between atoms: _166  and  _167
REMARK   65  A    between atoms: _167  and  _168
REMARK   66  A    between atoms: _173  and  _175
REMARK   67  A    between atoms: _175  and  _176
REMARK   68  A    between atoms: _175  and  _178
REMARK   69  A    between atoms: _178  and  _179
REMARK   70  A    between atoms: _182  and  _184
REMARK   71  A    between atoms: _184  and  _185
REMARK   72  A    between atoms: _184  and  _187
REMARK   73  A    between atoms: _190  and  _192
REMARK   74  A    between atoms: _192  and  _193
REMARK   75  A    between atoms: _192  and  _195
REMARK   76  A    between atoms: _195  and  _196
REMARK   77  A    between atoms: _199  and  _201
REMARK   78  A    between atoms: _201  and  _202
REMARK   79  A    between atoms: _205  and  _207
REMARK   80  A    between atoms: _207  and  _208
REMARK   81  A    between atoms: _210  and  _212
REMARK   82  A    between atoms: _212  and  _213
REMARK   83  A    between atoms: _212  and  _215
REMARK   84  A    between atoms: _217  and  _219
REMARK   85  A    between atoms: _219  and  _220
REMARK   86  A    between atoms: _222  and  _224
REMARK   87  A    between atoms: _224  and  _225
REMARK   88  A    between atoms: _224  and  _227
REMARK   89  A    between atoms: _230  and  _232
REMARK   90  A    between atoms: _232  and  _233
REMARK   91  A    between atoms: _235  and  _237
REMARK   92  A    between atoms: _237  and  _238
REMARK   93  A    between atoms: _237  and  _240
REMARK   94  A    between atoms: _240  and  _241
REMARK   95  A    between atoms: _243  and  _245
REMARK   96  A    between atoms: _245  and  _246
REMARK   97  A    between atoms: _245  and  _248
REMARK   98  A    between atoms: _248  and  _249
REMARK   99  A    between atoms: _252  and  _254
REMARK  100  A    between atoms: _254  and  _255
REMARK  101  A    between atoms: _254  and  _257
REMARK  102  A    between atoms: _257  and  _258
REMARK  103  A    between atoms: _260  and  _262
REMARK  104  A    between atoms: _262  and  _263
REMARK  105  A    between atoms: _262  and  _265
REMARK  106  A    between atoms: _265  and  _266
REMARK  107  A    between atoms: _268  and  _270
REMARK  108  A    between atoms: _270  and  _271
REMARK  109  A    between atoms: _270  and  _273
REMARK  110  A    between atoms: _273  and  _274
REMARK  111  A    between atoms: _277  and  _279
REMARK  112  A    between atoms: _279  and  _280
REMARK  113  A    between atoms: _279  and  _282
REMARK  114  A    between atoms: _282  and  _283
REMARK  115  A    between atoms: _286  and  _288
REMARK  116  A    between atoms: _288  and  _289
REMARK  117  A    between atoms: _288  and  _291
REMARK  118  A    between atoms: _291  and  _292
REMARK  119  A    between atoms: _294  and  _296
REMARK  120  A    between atoms: _296  and  _297
REMARK  121  A    between atoms: _296  and  _299
REMARK  122  A    between atoms: _299  and  _300
REMARK  123  A    between atoms: _300  and  _301
REMARK  124  A    between atoms: _304  and  _306
REMARK  125  A    between atoms: _306  and  _307
REMARK  126  A    between atoms: _306  and  _309
REMARK  127  A    between atoms: _309  and  _310
REMARK  128  A    between atoms: _310  and  _311
REMARK  129  A    between atoms: _311  and  _312
REMARK  130  A    between atoms: _312  and  _313
REMARK  131  A    between atoms: _317  and  _319
REMARK  132  A    between atoms: _319  and  _320
REMARK  133  A    between atoms: _319  and  _322
REMARK  134  A    between atoms: _322  and  _323
REMARK  135  A    between atoms: _323  and  _324
REMARK  136  A    between atoms: _326  and  _328
REMARK  137  A    between atoms: _328  and  _329
REMARK  138  A    between atoms: _328  and  _331
REMARK  139  A    between atoms: _334  and  _336
REMARK  140  A    between atoms: _336  and  _337
REMARK  141  A    between atoms: _336  and  _339
REMARK  142  A    between atoms: _339  and  _340
REMARK  143  A    between atoms: _340  and  _341
REMARK  144  A    between atoms: _343  and  _345
REMARK  145  A    between atoms: _345  and  _346
REMARK  146  A    between atoms: _345  and  _348
REMARK  147  A    between atoms: _348  and  _349
REMARK  148  A    between atoms: _352  and  _354
REMARK  149  A    between atoms: _354  and  _355
REMARK  150  A    between atoms: _354  and  _357
REMARK  151  A    between atoms: _357  and  _358
REMARK  152  A    between atoms: _358  and  _359
REMARK  153  A    between atoms: _364  and  _366
REMARK  154  A    between atoms: _366  and  _367
REMARK  155  A    between atoms: _366  and  _369
REMARK  156  A    between atoms: _369  and  _370
REMARK  157  A    between atoms: _373  and  _375
REMARK  158  A    between atoms: _375  and  _376
REMARK  159  A    between atoms: _375  and  _378
REMARK  160  A    between atoms: _378  and  _379
REMARK  161  A    between atoms: _382  and  _384
REMARK  162  A    between atoms: _384  and  _385
REMARK  163  A    between atoms: _388  and  _390
REMARK  164  A    between atoms: _390  and  _391
REMARK  165  A    between atoms: _390  and  _393
REMARK  166  A    between atoms: _393  and  _394
REMARK  167  A    between atoms: _394  and  _395
REMARK  168  A    between atoms: _400  and  _402
REMARK  169  A    between atoms: _402  and  _403
REMARK  170  A    between atoms: _402  and  _405
REMARK  171  A    between atoms: _405  and  _406
REMARK  172  A    between atoms: _409  and  _411
REMARK  173  A    between atoms: _411  and  _412
REMARK  174  A    between atoms: _411  and  _414
REMARK  175  A    between atoms: _414  and  _415
REMARK  176  A    between atoms: _418  and  _420
REMARK  177  A    between atoms: _420  and  _421
REMARK  178  A    between atoms: _420  and  _423
REMARK  179  A    between atoms: _425  and  _427
REMARK  180  A    between atoms: _427  and  _428
REMARK  181  A    between atoms: _427  and  _430
REMARK  182  A    between atoms: _430  and  _431
REMARK  183  A    between atoms: _434  and  _436
REMARK  184  A    between atoms: _436  and  _437
REMARK  185  A    between atoms: _436  and  _439
REMARK  186  A    between atoms: _439  and  _440
REMARK  187  A    between atoms: _443  and  _445
REMARK  188  A    between atoms: _445  and  _446
REMARK  189  A    between atoms: _445  and  _448
REMARK  190  A    between atoms: _451  and  _453
REMARK  191  A    between atoms: _453  and  _454
REMARK  192  A    between atoms: _453  and  _456
REMARK  193  A    between atoms: _456  and  _457
REMARK  194  A    between atoms: _460  and  _462
REMARK  195  A    between atoms: _462  and  _463
REMARK  196  A    between atoms: _462  and  _465
REMARK  197  A    between atoms: _465  and  _466
REMARK  198  A    between atoms: _469  and  _471
REMARK  199  A    between atoms: _471  and  _472
REMARK  200  A    between atoms: _471  and  _474
REMARK  201  A    between atoms: _474  and  _475
REMARK  202  A    between atoms: _480  and  _482
REMARK  203  A    between atoms: _482  and  _483
REMARK  204  A    between atoms: _482  and  _485
REMARK  205  A    between atoms: _485  and  _486
REMARK  206  A    between atoms: _491  and  _492
REMARK  207  A    between atoms: _494  and  _496
REMARK  208  A    between atoms: _496  and  _497
REMARK  209  A    between atoms: _496  and  _499
REMARK  210  A    between atoms: _499  and  _500
REMARK  211  A    between atoms: _500  and  _501
REMARK  212  A    between atoms: _503  and  _505
REMARK  213  A    between atoms: _505  and  _506
REMARK  214  A    between atoms: _505  and  _508
REMARK  215  A    between atoms: _508  and  _509
REMARK  216  A    between atoms: _512  and  _514
REMARK  217  A    between atoms: _514  and  _515
REMARK  218  A    between atoms: _514  and  _517
REMARK  219  A    between atoms: _517  and  _518
REMARK  220  A    between atoms: _520  and  _522
REMARK  221  A    between atoms: _522  and  _523
REMARK  222  A    between atoms: _522  and  _525
REMARK  223  A    between atoms: _525  and  _526
REMARK  224  A    between atoms: _531  and  _532
REMARK  225  A    between atoms: _534  and  _536
REMARK  226  A    between atoms: _536  and  _537
REMARK  227  A    between atoms: _536  and  _539
REMARK  228  A    between atoms: _539  and  _540
REMARK                            x       y       z     vdW  Elec       q    Type
REMARK                         _______ _______ _______ _____ _____    ______ ____
ROOT
ATOM      1  O   HOH     1      20.726  -0.301  15.122  0.00  0.00    +0.000 OA
ENDROOT
TORSDOF 0
REMARK  Name = ../refined-set-2016/4qdk/4qdk_pocket.pdb
REMARK  228 active torsions:
REMARK  status: ('A' for Active; 'I' for Inactive)
REMARK    1  A    between atoms: _1  and  _3
REMARK    2  A    between atoms: _3  and  _4
REMARK    3  A    between atoms: _3  and  _6
REMARK    4  A    between atoms: _6  and  _7
REMARK    5  A    between atoms: _10  and  _12
REMARK    6  A    between atoms: _12  and  _13
REMARK    7  A    between atoms: _12  and  _15
REMARK    8  A    between atoms: _15  and  _16
REMARK    9  A    between atoms: _16  and  _17
REMARK   10  A    between atoms: _17  and  _18
REMARK   11  A    between atoms: _18  and  _19
REMARK   12  A    between atoms: _23  and  _25
REMARK   13  A    between atoms: _25  and  _26
REMARK   14  A    between atoms: _25  and  _28
REMARK   15  A    between atoms: _28  and  _29
REMARK   16  A    between atoms: _32  and  _34
REMARK   17  A    between atoms: _34  and  _35
REMARK   18  A    between atoms: _34  and  _37
REMARK   19  A    between atoms: _40  and  _42
REMARK   20  A    between atoms: _42  and  _43
REMARK   21  A    between atoms: _42  and  _45
REMARK   22  A    between atoms: _45  and  _46
REMARK   23  A    between atoms: _46  and  _47
REMARK   24  A    between atoms: _47  and  _48
REMARK   25  A    between atoms: _57  and  _59
REMARK   26  A    between atoms: _59  and  _60
REMARK   27  A    between atoms: _59  and  _62
REMARK   28  A    between atoms: _62  and  _63
REMARK   29  A    between atoms: _66  and  _68
REMARK   30  A    between atoms: _68  and  _69
REMARK   31  A    between atoms: _68  and  _71
REMARK   32  A    between atoms: _71  and  _72
REMARK   33  A    between atoms: _77  and  _78
REMARK   34  A    between atoms: _80  and  _82
REMARK   35  A    between atoms: _82  and  _83
REMARK   36  A    between atoms: _82  and  _85
REMARK   37  A    between atoms: _85  and  _86
REMARK   38  A    between atoms: _92  and  _94
REMARK   39  A    between atoms: _94  and  _95
REMARK   40  A    between atoms: _94  and  _97
REMARK   41  A    between atoms: _97  and  _98
REMARK   42  A    between atoms: _103  and  _105
REMARK   43  A    between atoms: _105  and  _106
REMARK   44  A    between atoms: _108  and  _110
REMARK   45  A    between atoms: _110  and  _111
REMARK   46  A    between atoms: _110  and  _113
REMARK   47  A    between atoms: _113  and  _114
REMARK   48  A    between atoms: _120  and  _122
REMARK   49  A    between atoms: _122  and  _123
REMARK   50  A    between atoms: _122  and  _125
REMARK   51  A    between atoms: _125  and  _126
REMARK   52  A    between atoms: _136  and  _138
REMARK   53  A    between atoms: _138  and  _139
REMARK   54  A    between atoms: _138  and  _141
REMARK   55  A    between atoms: _141  and  _142
REMARK   56  A    between atoms: _147  and  _148
REMARK   57  A    between atoms: _150  and  _152
REMARK   58  A    between atoms: _152  and  _153
REMARK   59  A    between atoms: _152  and  _155
REMARK   60  A    between atoms: _155  and  _156
REMARK   61  A    between atoms: _161  and  _163
REMARK   62  A    between atoms: _163  and  _164
REMARK   63  A    between atoms: _163  and  _166
REMARK   64  A    between atoms: _166  and  _167
REMARK   65  A    between atoms: _167  and  _168
REMARK   66  A    between atoms: _173  and  _175
REMARK   67  A    between atoms: _175  and  _176
REMARK   68  A    between atoms: _175  and  _178
REMARK   69  A    between atoms: _178  and  _179
REMARK   70  A    between atoms: _182  and  _184
REMARK   71  A    between atoms: _184  and  _185
REMARK   72  A    between atoms: _184  and  _187
REMARK   73  A    between atoms: _190  and  _192
REMARK   74  A    between atoms: _192  and  _193
REMARK   75  A    between atoms: _192  and  _195
REMARK   76  A    between atoms: _195  and  _196
REMARK   77  A    between atoms: _199  and  _201
REMARK   78  A    between atoms: _201  and  _202
REMARK   79  A    between atoms: _205  and  _207
REMARK   80  A    between atoms: _207  and  _208
REMARK   81  A    between atoms: _210  and  _212
REMARK   82  A    between atoms: _212  and  _213
REMARK   83  A    between atoms: _212  and  _215
REMARK   84  A    between atoms: _217  and  _219
REMARK   85  A    between atoms: _219  and  _220
REMARK   86  A    between atoms: _222  and  _224
REMARK   87  A    between atoms: _224  and  _225
REMARK   88  A    between atoms: _224  and  _227
REMARK   89  A    between atoms: _230  and  _232
REMARK   90  A    between atoms: _232  and  _233
REMARK   91  A    between atoms: _235  and  _237
REMARK   92  A    between atoms: _237  and  _238
REMARK   93  A    between atoms: _237  and  _240
REMARK   94  A    between atoms: _240  and  _241
REMARK   95  A    between atoms: _243  and  _245
REMARK   96  A    between atoms: _245  and  _246
REMARK   97  A    between atoms: _245  and  _248
REMARK   98  A    between atoms: _248  and  _249
REMARK   99  A    between atoms: _252  and  _254
REMARK  100  A    between atoms: _254  and  _255
REMARK  101  A    between atoms: _254  and  _257
REMARK  102  A    between atoms: _257  and  _258
REMARK  103  A    between atoms: _260  and  _262
REMARK  104  A    between atoms: _262  and  _263
REMARK  105  A    between atoms: _262  and  _265
REMARK  106  A    between atoms: _265  and  _266
REMARK  107  A    between atoms: _268  and  _270
REMARK  108  A    between atoms: _270  and  _271
REMARK  109  A    between atoms: _270  and  _273
REMARK  110  A    between atoms: _273  and  _274
REMARK  111  A    between atoms: _277  and  _279
REMARK  112  A    between atoms: _279  and  _280
REMARK  113  A    between atoms: _279  and  _282
REMARK  114  A    between atoms: _282  and  _283
REMARK  115  A    between atoms: _286  and  _288
REMARK  116  A    between atoms: _288  and  _289
REMARK  117  A    between atoms: _288  and  _291
REMARK  118  A    between atoms: _291  and  _292
REMARK  119  A    between atoms: _294  and  _296
REMARK  120  A    between atoms: _296  and  _297
REMARK  121  A    between atoms: _296  and  _299
REMARK  122  A    between atoms: _299  and  _300
REMARK  123  A    between atoms: _300  and  _301
REMARK  124  A    between atoms: _304  and  _306
REMARK  125  A    between atoms: _306  and  _307
REMARK  126  A    between atoms: _306  and  _309
REMARK  127  A    between atoms: _309  and  _310
REMARK  128  A    between atoms: _310  and  _311
REMARK  129  A    between atoms: _311  and  _312
REMARK  130  A    between atoms: _312  and  _313
REMARK  131  A    between atoms: _317  and  _319
REMARK  132  A    between atoms: _319  and  _320
REMARK  133  A    between atoms: _319  and  _322
REMARK  134  A    between atoms: _322  and  _323
REMARK  135  A    between atoms: _323  and  _324
REMARK  136  A    between atoms: _326  and  _328
REMARK  137  A    between atoms: _328  and  _329
REMARK  138  A    between atoms: _328  and  _331
REMARK  139  A    between atoms: _334  and  _336
REMARK  140  A    between atoms: _336  and  _337
REMARK  141  A    between atoms: _336  and  _339
REMARK  142  A    between atoms: _339  and  _340
REMARK  143  A    between atoms: _340  and  _341
REMARK  144  A    between atoms: _343  and  _345
REMARK  145  A    between atoms: _345  and  _346
REMARK  146  A    between atoms: _345  and  _348
REMARK  147  A    between atoms: _348  and  _349
REMARK  148  A    between atoms: _352  and  _354
REMARK  149  A    between atoms: _354  and  _355
REMARK  150  A    between atoms: _354  and  _357
REMARK  151  A    between atoms: _357  and  _358
REMARK  152  A    between atoms: _358  and  _359
REMARK  153  A    between atoms: _364  and  _366
REMARK  154  A    between atoms: _366  and  _367
REMARK  155  A    between atoms: _366  and  _369
REMARK  156  A    between atoms: _369  and  _370
REMARK  157  A    between atoms: _373  and  _375
REMARK  158  A    between atoms: _375  and  _376
REMARK  159  A    between atoms: _375  and  _378
REMARK  160  A    between atoms: _378  and  _379
REMARK  161  A    between atoms: _382  and  _384
REMARK  162  A    between atoms: _384  and  _385
REMARK  163  A    between atoms: _388  and  _390
REMARK  164  A    between atoms: _390  and  _391
REMARK  165  A    between atoms: _390  and  _393
REMARK  166  A    between atoms: _393  and  _394
REMARK  167  A    between atoms: _394  and  _395
REMARK  168  A    between atoms: _400  and  _402
REMARK  169  A    between atoms: _402  and  _403
REMARK  170  A    between atoms: _402  and  _405
REMARK  171  A    between atoms: _405  and  _406
REMARK  172  A    between atoms: _409  and  _411
REMARK  173  A    between atoms: _411  and  _412
REMARK  174  A    between atoms: _411  and  _414
REMARK  175  A    between atoms: _414  and  _415
REMARK  176  A    between atoms: _418  and  _420
REMARK  177  A    between atoms: _420  and  _421
REMARK  178  A    between atoms: _420  and  _423
REMARK  179  A    between atoms: _425  and  _427
REMARK  180  A    between atoms: _427  and  _428
REMARK  181  A    between atoms: _427  and  _430
REMARK  182  A    between atoms: _430  and  _431
REMARK  183  A    between atoms: _434  and  _436
REMARK  184  A    between atoms: _436  and  _437
REMARK  185  A    between atoms: _436  and  _439
REMARK  186  A    between atoms: _439  and  _440
REMARK  187  A    between atoms: _443  and  _445
REMARK  188  A    between atoms: _445  and  _446
REMARK  189  A    between atoms: _445  and  _448
REMARK  190  A    between atoms: _451  and  _453
REMARK  191  A    between atoms: _453  and  _454
REMARK  192  A    between atoms: _453  and  _456
REMARK  193  A    between atoms: _456  and  _457
REMARK  194  A    between atoms: _460  and  _462
REMARK  195  A    between atoms: _462  and  _463
REMARK  196  A    between atoms: _462  and  _465
REMARK  197  A    between atoms: _465  and  _466
REMARK  198  A    between atoms: _469  and  _471
REMARK  199  A    between atoms: _471  and  _472
REMARK  200  A    between atoms: _471  and  _474
REMARK  201  A    between atoms: _474  and  _475
REMARK  202  A    between atoms: _480  and  _482
REMARK  203  A    between atoms: _482  and  _483
REMARK  204  A    between atoms: _482  and  _485
REMARK  205  A    between atoms: _485  and  _486
REMARK  206  A    between atoms: _491  and  _492
REMARK  207  A    between atoms: _494  and  _496
REMARK  208  A    between atoms: _496  and  _497
REMARK  209  A    between atoms: _496  and  _499
REMARK  210  A    between atoms: _499  and  _500
REMARK  211  A    between atoms: _500  and  _501
REMARK  212  A    between atoms: _503  and  _505
REMARK  213  A    between atoms: _505  and  _506
REMARK  214  A    between atoms: _505  and  _508
REMARK  215  A    between atoms: _508  and  _509
REMARK  216  A    between atoms: _512  and  _514
REMARK  217  A    between atoms: _514  and  _515
REMARK  218  A    between atoms: _514  and  _517
REMARK  219  A    between atoms: _517  and  _518
REMARK  220  A    between atoms: _520  and  _522
REMARK  221  A    between atoms: _522  and  _523
REMARK  222  A    between atoms: _522  and  _525
REMARK  223  A    between atoms: _525  and  _526
REMARK  224  A    between atoms: _531  and  _532
REMARK  225  A    between atoms: _534  and  _536
REMARK  226  A    between atoms: _536  and  _537
REMARK  227  A    between atoms: _536  and  _539
REMARK  228  A    between atoms: _539  and  _540
REMARK                            x       y       z     vdW  Elec       q    Type
REMARK                         _______ _______ _______ _____ _____    ______ ____
ROOT
ATOM      1  O   HOH     1      25.857   0.780  16.805  0.00  0.00    +0.000 OA
ENDROOT
TORSDOF 0
REMARK  Name = ../refined-set-2016/4qdk/4qdk_pocket.pdb
REMARK  228 active torsions:
REMARK  status: ('A' for Active; 'I' for Inactive)
REMARK    1  A    between atoms: _1  and  _3
REMARK    2  A    between atoms: _3  and  _4
REMARK    3  A    between atoms: _3  and  _6
REMARK    4  A    between atoms: _6  and  _7
REMARK    5  A    between atoms: _10  and  _12
REMARK    6  A    between atoms: _12  and  _13
REMARK    7  A    between atoms: _12  and  _15
REMARK    8  A    between atoms: _15  and  _16
REMARK    9  A    between atoms: _16  and  _17
REMARK   10  A    between atoms: _17  and  _18
REMARK   11  A    between atoms: _18  and  _19
REMARK   12  A    between atoms: _23  and  _25
REMARK   13  A    between atoms: _25  and  _26
REMARK   14  A    between atoms: _25  and  _28
REMARK   15  A    between atoms: _28  and  _29
REMARK   16  A    between atoms: _32  and  _34
REMARK   17  A    between atoms: _34  and  _35
REMARK   18  A    between atoms: _34  and  _37
REMARK   19  A    between atoms: _40  and  _42
REMARK   20  A    between atoms: _42  and  _43
REMARK   21  A    between atoms: _42  and  _45
REMARK   22  A    between atoms: _45  and  _46
REMARK   23  A    between atoms: _46  and  _47
REMARK   24  A    between atoms: _47  and  _48
REMARK   25  A    between atoms: _57  and  _59
REMARK   26  A    between atoms: _59  and  _60
REMARK   27  A    between atoms: _59  and  _62
REMARK   28  A    between atoms: _62  and  _63
REMARK   29  A    between atoms: _66  and  _68
REMARK   30  A    between atoms: _68  and  _69
REMARK   31  A    between atoms: _68  and  _71
REMARK   32  A    between atoms: _71  and  _72
REMARK   33  A    between atoms: _77  and  _78
REMARK   34  A    between atoms: _80  and  _82
REMARK   35  A    between atoms: _82  and  _83
REMARK   36  A    between atoms: _82  and  _85
REMARK   37  A    between atoms: _85  and  _86
REMARK   38  A    between atoms: _92  and  _94
REMARK   39  A    between atoms: _94  and  _95
REMARK   40  A    between atoms: _94  and  _97
REMARK   41  A    between atoms: _97  and  _98
REMARK   42  A    between atoms: _103  and  _105
REMARK   43  A    between atoms: _105  and  _106
REMARK   44  A    between atoms: _108  and  _110
REMARK   45  A    between atoms: _110  and  _111
REMARK   46  A    between atoms: _110  and  _113
REMARK   47  A    between atoms: _113  and  _114
REMARK   48  A    between atoms: _120  and  _122
REMARK   49  A    between atoms: _122  and  _123
REMARK   50  A    between atoms: _122  and  _125
REMARK   51  A    between atoms: _125  and  _126
REMARK   52  A    between atoms: _136  and  _138
REMARK   53  A    between atoms: _138  and  _139
REMARK   54  A    between atoms: _138  and  _141
REMARK   55  A    between atoms: _141  and  _142
REMARK   56  A    between atoms: _147  and  _148
REMARK   57  A    between atoms: _150  and  _152
REMARK   58  A    between atoms: _152  and  _153
REMARK   59  A    between atoms: _152  and  _155
REMARK   60  A    between atoms: _155  and  _156
REMARK   61  A    between atoms: _161  and  _163
REMARK   62  A    between atoms: _163  and  _164
REMARK   63  A    between atoms: _163  and  _166
REMARK   64  A    between atoms: _166  and  _167
REMARK   65  A    between atoms: _167  and  _168
REMARK   66  A    between atoms: _173  and  _175
REMARK   67  A    between atoms: _175  and  _176
REMARK   68  A    between atoms: _175  and  _178
REMARK   69  A    between atoms: _178  and  _179
REMARK   70  A    between atoms: _182  and  _184
REMARK   71  A    between atoms: _184  and  _185
REMARK   72  A    between atoms: _184  and  _187
REMARK   73  A    between atoms: _190  and  _192
REMARK   74  A    between atoms: _192  and  _193
REMARK   75  A    between atoms: _192  and  _195
REMARK   76  A    between atoms: _195  and  _196
REMARK   77  A    between atoms: _199  and  _201
REMARK   78  A    between atoms: _201  and  _202
REMARK   79  A    between atoms: _205  and  _207
REMARK   80  A    between atoms: _207  and  _208
REMARK   81  A    between atoms: _210  and  _212
REMARK   82  A    between atoms: _212  and  _213
REMARK   83  A    between atoms: _212  and  _215
REMARK   84  A    between atoms: _217  and  _219
REMARK   85  A    between atoms: _219  and  _220
REMARK   86  A    between atoms: _222  and  _224
REMARK   87  A    between atoms: _224  and  _225
REMARK   88  A    between atoms: _224  and  _227
REMARK   89  A    between atoms: _230  and  _232
REMARK   90  A    between atoms: _232  and  _233
REMARK   91  A    between atoms: _235  and  _237
REMARK   92  A    between atoms: _237  and  _238
REMARK   93  A    between atoms: _237  and  _240
REMARK   94  A    between atoms: _240  and  _241
REMARK   95  A    between atoms: _243  and  _245
REMARK   96  A    between atoms: _245  and  _246
REMARK   97  A    between atoms: _245  and  _248
REMARK   98  A    between atoms: _248  and  _249
REMARK   99  A    between atoms: _252  and  _254
REMARK  100  A    between atoms: _254  and  _255
REMARK  101  A    between atoms: _254  and  _257
REMARK  102  A    between atoms: _257  and  _258
REMARK  103  A    between atoms: _260  and  _262
REMARK  104  A    between atoms: _262  and  _263
REMARK  105  A    between atoms: _262  and  _265
REMARK  106  A    between atoms: _265  and  _266
REMARK  107  A    between atoms: _268  and  _270
REMARK  108  A    between atoms: _270  and  _271
REMARK  109  A    between atoms: _270  and  _273
REMARK  110  A    between atoms: _273  and  _274
REMARK  111  A    between atoms: _277  and  _279
REMARK  112  A    between atoms: _279  and  _280
REMARK  113  A    between atoms: _279  and  _282
REMARK  114  A    between atoms: _282  and  _283
REMARK  115  A    between atoms: _286  and  _288
REMARK  116  A    between atoms: _288  and  _289
REMARK  117  A    between atoms: _288  and  _291
REMARK  118  A    between atoms: _291  and  _292
REMARK  119  A    between atoms: _294  and  _296
REMARK  120  A    between atoms: _296  and  _297
REMARK  121  A    between atoms: _296  and  _299
REMARK  122  A    between atoms: _299  and  _300
REMARK  123  A    between atoms: _300  and  _301
REMARK  124  A    between atoms: _304  and  _306
REMARK  125  A    between atoms: _306  and  _307
REMARK  126  A    between atoms: _306  and  _309
REMARK  127  A    between atoms: _309  and  _310
REMARK  128  A    between atoms: _310  and  _311
REMARK  129  A    between atoms: _311  and  _312
REMARK  130  A    between atoms: _312  and  _313
REMARK  131  A    between atoms: _317  and  _319
REMARK  132  A    between atoms: _319  and  _320
REMARK  133  A    between atoms: _319  and  _322
REMARK  134  A    between atoms: _322  and  _323
REMARK  135  A    between atoms: _323  and  _324
REMARK  136  A    between atoms: _326  and  _328
REMARK  137  A    between atoms: _328  and  _329
REMARK  138  A    between atoms: _328  and  _331
REMARK  139  A    between atoms: _334  and  _336
REMARK  140  A    between atoms: _336  and  _337
REMARK  141  A    between atoms: _336  and  _339
REMARK  142  A    between atoms: _339  and  _340
REMARK  143  A    between atoms: _340  and  _341
REMARK  144  A    between atoms: _343  and  _345
REMARK  145  A    between atoms: _345  and  _346
REMARK  146  A    between atoms: _345  and  _348
REMARK  147  A    between atoms: _348  and  _349
REMARK  148  A    between atoms: _352  and  _354
REMARK  149  A    between atoms: _354  and  _355
REMARK  150  A    between atoms: _354  and  _357
REMARK  151  A    between atoms: _357  and  _358
REMARK  152  A    between atoms: _358  and  _359
REMARK  153  A    between atoms: _364  and  _366
REMARK  154  A    between atoms: _366  and  _367
REMARK  155  A    between atoms: _366  and  _369
REMARK  156  A    between atoms: _369  and  _370
REMARK  157  A    between atoms: _373  and  _375
REMARK  158  A    between atoms: _375  and  _376
REMARK  159  A    between atoms: _375  and  _378
REMARK  160  A    between atoms: _378  and  _379
REMARK  161  A    between atoms: _382  and  _384
REMARK  162  A    between atoms: _384  and  _385
REMARK  163  A    between atoms: _388  and  _390
REMARK  164  A    between atoms: _390  and  _391
REMARK  165  A    between atoms: _390  and  _393
REMARK  166  A    between atoms: _393  and  _394
REMARK  167  A    between atoms: _394  and  _395
REMARK  168  A    between atoms: _400  and  _402
REMARK  169  A    between atoms: _402  and  _403
REMARK  170  A    between atoms: _402  and  _405
REMARK  171  A    between atoms: _405  and  _406
REMARK  172  A    between atoms: _409  and  _411
REMARK  173  A    between atoms: _411  and  _412
REMARK  174  A    between atoms: _411  and  _414
REMARK  175  A    between atoms: _414  and  _415
REMARK  176  A    between atoms: _418  and  _420
REMARK  177  A    between atoms: _420  and  _421
REMARK  178  A    between atoms: _420  and  _423
REMARK  179  A    between atoms: _425  and  _427
REMARK  180  A    between atoms: _427  and  _428
REMARK  181  A    between atoms: _427  and  _430
REMARK  182  A    between atoms: _430  and  _431
REMARK  183  A    between atoms: _434  and  _436
REMARK  184  A    between atoms: _436  and  _437
REMARK  185  A    between atoms: _436  and  _439
REMARK  186  A    between atoms: _439  and  _440
REMARK  187  A    between atoms: _443  and  _445
REMARK  188  A    between atoms: _445  and  _446
REMARK  189  A    between atoms: _445  and  _448
REMARK  190  A    between atoms: _451  and  _453
REMARK  191  A    between atoms: _453  and  _454
REMARK  192  A    between atoms: _453  and  _456
REMARK  193  A    between atoms: _456  and  _457
REMARK  194  A    between atoms: _460  and  _462
REMARK  195  A    between atoms: _462  and  _463
REMARK  196  A    between atoms: _462  and  _465
REMARK  197  A    between atoms: _465  and  _466
REMARK  198  A    between atoms: _469  and  _471
REMARK  199  A    between atoms: _471  and  _472
REMARK  200  A    between atoms: _471  and  _474
REMARK  201  A    between atoms: _474  and  _475
REMARK  202  A    between atoms: _480  and  _482
REMARK  203  A    between atoms: _482  and  _483
REMARK  204  A    between atoms: _482  and  _485
REMARK  205  A    between atoms: _485  and  _486
REMARK  206  A    between atoms: _491  and  _492
REMARK  207  A    between atoms: _494  and  _496
REMARK  208  A    between atoms: _496  and  _497
REMARK  209  A    between atoms: _496  and  _499
REMARK  210  A    between atoms: _499  and  _500
REMARK  211  A    between atoms: _500  and  _501
REMARK  212  A    between atoms: _503  and  _505
REMARK  213  A    between atoms: _505  and  _506
REMARK  214  A    between atoms: _505  and  _508
REMARK  215  A    between atoms: _508  and  _509
REMARK  216  A    between atoms: _512  and  _514
REMARK  217  A    between atoms: _514  and  _515
REMARK  218  A    between atoms: _514  and  _517
REMARK  219  A    between atoms: _517  and  _518
REMARK  220  A    between atoms: _520  and  _522
REMARK  221  A    between atoms: _522  and  _523
REMARK  222  A    between atoms: _522  and  _525
REMARK  223  A    between atoms: _525  and  _526
REMARK  224  A    between atoms: _531  and  _532
REMARK  225  A    between atoms: _534  and  _536
REMARK  226  A    between atoms: _536  and  _537
REMARK  227  A    between atoms: _536  and  _539
REMARK  228  A    between atoms: _539  and  _540
REMARK                            x       y       z     vdW  Elec       q    Type
REMARK                         _______ _______ _______ _____ _____    ______ ____
ROOT
ATOM      1  O   HOH     1      26.116   5.039  16.328  0.00  0.00    +0.000 OA
ENDROOT
TORSDOF 0
REMARK  Name = ../refined-set-2016/4qdk/4qdk_pocket.pdb
REMARK  228 active torsions:
REMARK  status: ('A' for Active; 'I' for Inactive)
REMARK    1  A    between atoms: _1  and  _3
REMARK    2  A    between atoms: _3  and  _4
REMARK    3  A    between atoms: _3  and  _6
REMARK    4  A    between atoms: _6  and  _7
REMARK    5  A    between atoms: _10  and  _12
REMARK    6  A    between atoms: _12  and  _13
REMARK    7  A    between atoms: _12  and  _15
REMARK    8  A    between atoms: _15  and  _16
REMARK    9  A    between atoms: _16  and  _17
REMARK   10  A    between atoms: _17  and  _18
REMARK   11  A    between atoms: _18  and  _19
REMARK   12  A    between atoms: _23  and  _25
REMARK   13  A    between atoms: _25  and  _26
REMARK   14  A    between atoms: _25  and  _28
REMARK   15  A    between atoms: _28  and  _29
REMARK   16  A    between atoms: _32  and  _34
REMARK   17  A    between atoms: _34  and  _35
REMARK   18  A    between atoms: _34  and  _37
REMARK   19  A    between atoms: _40  and  _42
REMARK   20  A    between atoms: _42  and  _43
REMARK   21  A    between atoms: _42  and  _45
REMARK   22  A    between atoms: _45  and  _46
REMARK   23  A    between atoms: _46  and  _47
REMARK   24  A    between atoms: _47  and  _48
REMARK   25  A    between atoms: _57  and  _59
REMARK   26  A    between atoms: _59  and  _60
REMARK   27  A    between atoms: _59  and  _62
REMARK   28  A    between atoms: _62  and  _63
REMARK   29  A    between atoms: _66  and  _68
REMARK   30  A    between atoms: _68  and  _69
REMARK   31  A    between atoms: _68  and  _71
REMARK   32  A    between atoms: _71  and  _72
REMARK   33  A    between atoms: _77  and  _78
REMARK   34  A    between atoms: _80  and  _82
REMARK   35  A    between atoms: _82  and  _83
REMARK   36  A    between atoms: _82  and  _85
REMARK   37  A    between atoms: _85  and  _86
REMARK   38  A    between atoms: _92  and  _94
REMARK   39  A    between atoms: _94  and  _95
REMARK   40  A    between atoms: _94  and  _97
REMARK   41  A    between atoms: _97  and  _98
REMARK   42  A    between atoms: _103  and  _105
REMARK   43  A    between atoms: _105  and  _106
REMARK   44  A    between atoms: _108  and  _110
REMARK   45  A    between atoms: _110  and  _111
REMARK   46  A    between atoms: _110  and  _113
REMARK   47  A    between atoms: _113  and  _114
REMARK   48  A    between atoms: _120  and  _122
REMARK   49  A    between atoms: _122  and  _123
REMARK   50  A    between atoms: _122  and  _125
REMARK   51  A    between atoms: _125  and  _126
REMARK   52  A    between atoms: _136  and  _138
REMARK   53  A    between atoms: _138  and  _139
REMARK   54  A    between atoms: _138  and  _141
REMARK   55  A    between atoms: _141  and  _142
REMARK   56  A    between atoms: _147  and  _148
REMARK   57  A    between atoms: _150  and  _152
REMARK   58  A    between atoms: _152  and  _153
REMARK   59  A    between atoms: _152  and  _155
REMARK   60  A    between atoms: _155  and  _156
REMARK   61  A    between atoms: _161  and  _163
REMARK   62  A    between atoms: _163  and  _164
REMARK   63  A    between atoms: _163  and  _166
REMARK   64  A    between atoms: _166  and  _167
REMARK   65  A    between atoms: _167  and  _168
REMARK   66  A    between atoms: _173  and  _175
REMARK   67  A    between atoms: _175  and  _176
REMARK   68  A    between atoms: _175  and  _178
REMARK   69  A    between atoms: _178  and  _179
REMARK   70  A    between atoms: _182  and  _184
REMARK   71  A    between atoms: _184  and  _185
REMARK   72  A    between atoms: _184  and  _187
REMARK   73  A    between atoms: _190  and  _192
REMARK   74  A    between atoms: _192  and  _193
REMARK   75  A    between atoms: _192  and  _195
REMARK   76  A    between atoms: _195  and  _196
REMARK   77  A    between atoms: _199  and  _201
REMARK   78  A    between atoms: _201  and  _202
REMARK   79  A    between atoms: _205  and  _207
REMARK   80  A    between atoms: _207  and  _208
REMARK   81  A    between atoms: _210  and  _212
REMARK   82  A    between atoms: _212  and  _213
REMARK   83  A    between atoms: _212  and  _215
REMARK   84  A    between atoms: _217  and  _219
REMARK   85  A    between atoms: _219  and  _220
REMARK   86  A    between atoms: _222  and  _224
REMARK   87  A    between atoms: _224  and  _225
REMARK   88  A    between atoms: _224  and  _227
REMARK   89  A    between atoms: _230  and  _232
REMARK   90  A    between atoms: _232  and  _233
REMARK   91  A    between atoms: _235  and  _237
REMARK   92  A    between atoms: _237  and  _238
REMARK   93  A    between atoms: _237  and  _240
REMARK   94  A    between atoms: _240  and  _241
REMARK   95  A    between atoms: _243  and  _245
REMARK   96  A    between atoms: _245  and  _246
REMARK   97  A    between atoms: _245  and  _248
REMARK   98  A    between atoms: _248  and  _249
REMARK   99  A    between atoms: _252  and  _254
REMARK  100  A    between atoms: _254  and  _255
REMARK  101  A    between atoms: _254  and  _257
REMARK  102  A    between atoms: _257  and  _258
REMARK  103  A    between atoms: _260  and  _262
REMARK  104  A    between atoms: _262  and  _263
REMARK  105  A    between atoms: _262  and  _265
REMARK  106  A    between atoms: _265  and  _266
REMARK  107  A    between atoms: _268  and  _270
REMARK  108  A    between atoms: _270  and  _271
REMARK  109  A    between atoms: _270  and  _273
REMARK  110  A    between atoms: _273  and  _274
REMARK  111  A    between atoms: _277  and  _279
REMARK  112  A    between atoms: _279  and  _280
REMARK  113  A    between atoms: _279  and  _282
REMARK  114  A    between atoms: _282  and  _283
REMARK  115  A    between atoms: _286  and  _288
REMARK  116  A    between atoms: _288  and  _289
REMARK  117  A    between atoms: _288  and  _291
REMARK  118  A    between atoms: _291  and  _292
REMARK  119  A    between atoms: _294  and  _296
REMARK  120  A    between atoms: _296  and  _297
REMARK  121  A    between atoms: _296  and  _299
REMARK  122  A    between atoms: _299  and  _300
REMARK  123  A    between atoms: _300  and  _301
REMARK  124  A    between atoms: _304  and  _306
REMARK  125  A    between atoms: _306  and  _307
REMARK  126  A    between atoms: _306  and  _309
REMARK  127  A    between atoms: _309  and  _310
REMARK  128  A    between atoms: _310  and  _311
REMARK  129  A    between atoms: _311  and  _312
REMARK  130  A    between atoms: _312  and  _313
REMARK  131  A    between atoms: _317  and  _319
REMARK  132  A    between atoms: _319  and  _320
REMARK  133  A    between atoms: _319  and  _322
REMARK  134  A    between atoms: _322  and  _323
REMARK  135  A    between atoms: _323  and  _324
REMARK  136  A    between atoms: _326  and  _328
REMARK  137  A    between atoms: _328  and  _329
REMARK  138  A    between atoms: _328  and  _331
REMARK  139  A    between atoms: _334  and  _336
REMARK  140  A    between atoms: _336  and  _337
REMARK  141  A    between atoms: _336  and  _339
REMARK  142  A    between atoms: _339  and  _340
REMARK  143  A    between atoms: _340  and  _341
REMARK  144  A    between atoms: _343  and  _345
REMARK  145  A    between atoms: _345  and  _346
REMARK  146  A    between atoms: _345  and  _348
REMARK  147  A    between atoms: _348  and  _349
REMARK  148  A    between atoms: _352  and  _354
REMARK  149  A    between atoms: _354  and  _355
REMARK  150  A    between atoms: _354  and  _357
REMARK  151  A    between atoms: _357  and  _358
REMARK  152  A    between atoms: _358  and  _359
REMARK  153  A    between atoms: _364  and  _366
REMARK  154  A    between atoms: _366  and  _367
REMARK  155  A    between atoms: _366  and  _369
REMARK  156  A    between atoms: _369  and  _370
REMARK  157  A    between atoms: _373  and  _375
REMARK  158  A    between atoms: _375  and  _376
REMARK  159  A    between atoms: _375  and  _378
REMARK  160  A    between atoms: _378  and  _379
REMARK  161  A    between atoms: _382  and  _384
REMARK  162  A    between atoms: _384  and  _385
REMARK  163  A    between atoms: _388  and  _390
REMARK  164  A    between atoms: _390  and  _391
REMARK  165  A    between atoms: _390  and  _393
REMARK  166  A    between atoms: _393  and  _394
REMARK  167  A    between atoms: _394  and  _395
REMARK  168  A    between atoms: _400  and  _402
REMARK  169  A    between atoms: _402  and  _403
REMARK  170  A    between atoms: _402  and  _405
REMARK  171  A    between atoms: _405  and  _406
REMARK  172  A    between atoms: _409  and  _411
REMARK  173  A    between atoms: _411  and  _412
REMARK  174  A    between atoms: _411  and  _414
REMARK  175  A    between atoms: _414  and  _415
REMARK  176  A    between atoms: _418  and  _420
REMARK  177  A    between atoms: _420  and  _421
REMARK  178  A    between atoms: _420  and  _423
REMARK  179  A    between atoms: _425  and  _427
REMARK  180  A    between atoms: _427  and  _428
REMARK  181  A    between atoms: _427  and  _430
REMARK  182  A    between atoms: _430  and  _431
REMARK  183  A    between atoms: _434  and  _436
REMARK  184  A    between atoms: _436  and  _437
REMARK  185  A    between atoms: _436  and  _439
REMARK  186  A    between atoms: _439  and  _440
REMARK  187  A    between atoms: _443  and  _445
REMARK  188  A    between atoms: _445  and  _446
REMARK  189  A    between atoms: _445  and  _448
REMARK  190  A    between atoms: _451  and  _453
REMARK  191  A    between atoms: _453  and  _454
REMARK  192  A    between atoms: _453  and  _456
REMARK  193  A    between atoms: _456  and  _457
REMARK  194  A    between atoms: _460  and  _462
REMARK  195  A    between atoms: _462  and  _463
REMARK  196  A    between atoms: _462  and  _465
REMARK  197  A    between atoms: _465  and  _466
REMARK  198  A    between atoms: _469  and  _471
REMARK  199  A    between atoms: _471  and  _472
REMARK  200  A    between atoms: _471  and  _474
REMARK  201  A    between atoms: _474  and  _475
REMARK  202  A    between atoms: _480  and  _482
REMARK  203  A    between atoms: _482  and  _483
REMARK  204  A    between atoms: _482  and  _485
REMARK  205  A    between atoms: _485  and  _486
REMARK  206  A    between atoms: _491  and  _492
REMARK  207  A    between atoms: _494  and  _496
REMARK  208  A    between atoms: _496  and  _497
REMARK  209  A    between atoms: _496  and  _499
REMARK  210  A    between atoms: _499  and  _500
REMARK  211  A    between atoms: _500  and  _501
REMARK  212  A    between atoms: _503  and  _505
REMARK  213  A    between atoms: _505  and  _506
REMARK  214  A    between atoms: _505  and  _508
REMARK  215  A    between atoms: _508  and  _509
REMARK  216  A    between atoms: _512  and  _514
REMARK  217  A    between atoms: _514  and  _515
REMARK  218  A    between atoms: _514  and  _517
REMARK  219  A    between atoms: _517  and  _518
REMARK  220  A    between atoms: _520  and  _522
REMARK  221  A    between atoms: _522  and  _523
REMARK  222  A    between atoms: _522  and  _525
REMARK  223  A    between atoms: _525  and  _526
REMARK  224  A    between atoms: _531  and  _532
REMARK  225  A    between atoms: _534  and  _536
REMARK  226  A    between atoms: _536  and  _537
REMARK  227  A    between atoms: _536  and  _539
REMARK  228  A    between atoms: _539  and  _540
REMARK                            x       y       z     vdW  Elec       q    Type
REMARK                         _______ _______ _______ _____ _____    ______ ____
ROOT
ATOM      1  O   HOH     1      25.207   9.344  22.400  0.00  0.00    +0.000 OA
ENDROOT
TORSDOF 0
REMARK  Name = ../refined-set-2016/4qdk/4qdk_pocket.pdb
REMARK  228 active torsions:
REMARK  status: ('A' for Active; 'I' for Inactive)
REMARK    1  A    between atoms: _1  and  _3
REMARK    2  A    between atoms: _3  and  _4
REMARK    3  A    between atoms: _3  and  _6
REMARK    4  A    between atoms: _6  and  _7
REMARK    5  A    between atoms: _10  and  _12
REMARK    6  A    between atoms: _12  and  _13
REMARK    7  A    between atoms: _12  and  _15
REMARK    8  A    between atoms: _15  and  _16
REMARK    9  A    between atoms: _16  and  _17
REMARK   10  A    between atoms: _17  and  _18
REMARK   11  A    between atoms: _18  and  _19
REMARK   12  A    between atoms: _23  and  _25
REMARK   13  A    between atoms: _25  and  _26
REMARK   14  A    between atoms: _25  and  _28
REMARK   15  A    between atoms: _28  and  _29
REMARK   16  A    between atoms: _32  and  _34
REMARK   17  A    between atoms: _34  and  _35
REMARK   18  A    between atoms: _34  and  _37
REMARK   19  A    between atoms: _40  and  _42
REMARK   20  A    between atoms: _42  and  _43
REMARK   21  A    between atoms: _42  and  _45
REMARK   22  A    between atoms: _45  and  _46
REMARK   23  A    between atoms: _46  and  _47
REMARK   24  A    between atoms: _47  and  _48
REMARK   25  A    between atoms: _57  and  _59
REMARK   26  A    between atoms: _59  and  _60
REMARK   27  A    between atoms: _59  and  _62
REMARK   28  A    between atoms: _62  and  _63
REMARK   29  A    between atoms: _66  and  _68
REMARK   30  A    between atoms: _68  and  _69
REMARK   31  A    between atoms: _68  and  _71
REMARK   32  A    between atoms: _71  and  _72
REMARK   33  A    between atoms: _77  and  _78
REMARK   34  A    between atoms: _80  and  _82
REMARK   35  A    between atoms: _82  and  _83
REMARK   36  A    between atoms: _82  and  _85
REMARK   37  A    between atoms: _85  and  _86
REMARK   38  A    between atoms: _92  and  _94
REMARK   39  A    between atoms: _94  and  _95
REMARK   40  A    between atoms: _94  and  _97
REMARK   41  A    between atoms: _97  and  _98
REMARK   42  A    between atoms: _103  and  _105
REMARK   43  A    between atoms: _105  and  _106
REMARK   44  A    between atoms: _108  and  _110
REMARK   45  A    between atoms: _110  and  _111
REMARK   46  A    between atoms: _110  and  _113
REMARK   47  A    between atoms: _113  and  _114
REMARK   48  A    between atoms: _120  and  _122
REMARK   49  A    between atoms: _122  and  _123
REMARK   50  A    between atoms: _122  and  _125
REMARK   51  A    between atoms: _125  and  _126
REMARK   52  A    between atoms: _136  and  _138
REMARK   53  A    between atoms: _138  and  _139
REMARK   54  A    between atoms: _138  and  _141
REMARK   55  A    between atoms: _141  and  _142
REMARK   56  A    between atoms: _147  and  _148
REMARK   57  A    between atoms: _150  and  _152
REMARK   58  A    between atoms: _152  and  _153
REMARK   59  A    between atoms: _152  and  _155
REMARK   60  A    between atoms: _155  and  _156
REMARK   61  A    between atoms: _161  and  _163
REMARK   62  A    between atoms: _163  and  _164
REMARK   63  A    between atoms: _163  and  _166
REMARK   64  A    between atoms: _166  and  _167
REMARK   65  A    between atoms: _167  and  _168
REMARK   66  A    between atoms: _173  and  _175
REMARK   67  A    between atoms: _175  and  _176
REMARK   68  A    between atoms: _175  and  _178
REMARK   69  A    between atoms: _178  and  _179
REMARK   70  A    between atoms: _182  and  _184
REMARK   71  A    between atoms: _184  and  _185
REMARK   72  A    between atoms: _184  and  _187
REMARK   73  A    between atoms: _190  and  _192
REMARK   74  A    between atoms: _192  and  _193
REMARK   75  A    between atoms: _192  and  _195
REMARK   76  A    between atoms: _195  and  _196
REMARK   77  A    between atoms: _199  and  _201
REMARK   78  A    between atoms: _201  and  _202
REMARK   79  A    between atoms: _205  and  _207
REMARK   80  A    between atoms: _207  and  _208
REMARK   81  A    between atoms: _210  and  _212
REMARK   82  A    between atoms: _212  and  _213
REMARK   83  A    between atoms: _212  and  _215
REMARK   84  A    between atoms: _217  and  _219
REMARK   85  A    between atoms: _219  and  _220
REMARK   86  A    between atoms: _222  and  _224
REMARK   87  A    between atoms: _224  and  _225
REMARK   88  A    between atoms: _224  and  _227
REMARK   89  A    between atoms: _230  and  _232
REMARK   90  A    between atoms: _232  and  _233
REMARK   91  A    between atoms: _235  and  _237
REMARK   92  A    between atoms: _237  and  _238
REMARK   93  A    between atoms: _237  and  _240
REMARK   94  A    between atoms: _240  and  _241
REMARK   95  A    between atoms: _243  and  _245
REMARK   96  A    between atoms: _245  and  _246
REMARK   97  A    between atoms: _245  and  _248
REMARK   98  A    between atoms: _248  and  _249
REMARK   99  A    between atoms: _252  and  _254
REMARK  100  A    between atoms: _254  and  _255
REMARK  101  A    between atoms: _254  and  _257
REMARK  102  A    between atoms: _257  and  _258
REMARK  103  A    between atoms: _260  and  _262
REMARK  104  A    between atoms: _262  and  _263
REMARK  105  A    between atoms: _262  and  _265
REMARK  106  A    between atoms: _265  and  _266
REMARK  107  A    between atoms: _268  and  _270
REMARK  108  A    between atoms: _270  and  _271
REMARK  109  A    between atoms: _270  and  _273
REMARK  110  A    between atoms: _273  and  _274
REMARK  111  A    between atoms: _277  and  _279
REMARK  112  A    between atoms: _279  and  _280
REMARK  113  A    between atoms: _279  and  _282
REMARK  114  A    between atoms: _282  and  _283
REMARK  115  A    between atoms: _286  and  _288
REMARK  116  A    between atoms: _288  and  _289
REMARK  117  A    between atoms: _288  and  _291
REMARK  118  A    between atoms: _291  and  _292
REMARK  119  A    between atoms: _294  and  _296
REMARK  120  A    between atoms: _296  and  _297
REMARK  121  A    between atoms: _296  and  _299
REMARK  122  A    between atoms: _299  and  _300
REMARK  123  A    between atoms: _300  and  _301
REMARK  124  A    between atoms: _304  and  _306
REMARK  125  A    between atoms: _306  and  _307
REMARK  126  A    between atoms: _306  and  _309
REMARK  127  A    between atoms: _309  and  _310
REMARK  128  A    between atoms: _310  and  _311
REMARK  129  A    between atoms: _311  and  _312
REMARK  130  A    between atoms: _312  and  _313
REMARK  131  A    between atoms: _317  and  _319
REMARK  132  A    between atoms: _319  and  _320
REMARK  133  A    between atoms: _319  and  _322
REMARK  134  A    between atoms: _322  and  _323
REMARK  135  A    between atoms: _323  and  _324
REMARK  136  A    between atoms: _326  and  _328
REMARK  137  A    between atoms: _328  and  _329
REMARK  138  A    between atoms: _328  and  _331
REMARK  139  A    between atoms: _334  and  _336
REMARK  140  A    between atoms: _336  and  _337
REMARK  141  A    between atoms: _336  and  _339
REMARK  142  A    between atoms: _339  and  _340
REMARK  143  A    between atoms: _340  and  _341
REMARK  144  A    between atoms: _343  and  _345
REMARK  145  A    between atoms: _345  and  _346
REMARK  146  A    between atoms: _345  and  _348
REMARK  147  A    between atoms: _348  and  _349
REMARK  148  A    between atoms: _352  and  _354
REMARK  149  A    between atoms: _354  and  _355
REMARK  150  A    between atoms: _354  and  _357
REMARK  151  A    between atoms: _357  and  _358
REMARK  152  A    between atoms: _358  and  _359
REMARK  153  A    between atoms: _364  and  _366
REMARK  154  A    between atoms: _366  and  _367
REMARK  155  A    between atoms: _366  and  _369
REMARK  156  A    between atoms: _369  and  _370
REMARK  157  A    between atoms: _373  and  _375
REMARK  158  A    between atoms: _375  and  _376
REMARK  159  A    between atoms: _375  and  _378
REMARK  160  A    between atoms: _378  and  _379
REMARK  161  A    between atoms: _382  and  _384
REMARK  162  A    between atoms: _384  and  _385
REMARK  163  A    between atoms: _388  and  _390
REMARK  164  A    between atoms: _390  and  _391
REMARK  165  A    between atoms: _390  and  _393
REMARK  166  A    between atoms: _393  and  _394
REMARK  167  A    between atoms: _394  and  _395
REMARK  168  A    between atoms: _400  and  _402
REMARK  169  A    between atoms: _402  and  _403
REMARK  170  A    between atoms: _402  and  _405
REMARK  171  A    between atoms: _405  and  _406
REMARK  172  A    between atoms: _409  and  _411
REMARK  173  A    between atoms: _411  and  _412
REMARK  174  A    between atoms: _411  and  _414
REMARK  175  A    between atoms: _414  and  _415
REMARK  176  A    between atoms: _418  and  _420
REMARK  177  A    between atoms: _420  and  _421
REMARK  178  A    between atoms: _420  and  _423
REMARK  179  A    between atoms: _425  and  _427
REMARK  180  A    between atoms: _427  and  _428
REMARK  181  A    between atoms: _427  and  _430
REMARK  182  A    between atoms: _430  and  _431
REMARK  183  A    between atoms: _434  and  _436
REMARK  184  A    between atoms: _436  and  _437
REMARK  185  A    between atoms: _436  and  _439
REMARK  186  A    between atoms: _439  and  _440
REMARK  187  A    between atoms: _443  and  _445
REMARK  188  A    between atoms: _445  and  _446
REMARK  189  A    between atoms: _445  and  _448
REMARK  190  A    between atoms: _451  and  _453
REMARK  191  A    between atoms: _453  and  _454
REMARK  192  A    between atoms: _453  and  _456
REMARK  193  A    between atoms: _456  and  _457
REMARK  194  A    between atoms: _460  and  _462
REMARK  195  A    between atoms: _462  and  _463
REMARK  196  A    between atoms: _462  and  _465
REMARK  197  A    between atoms: _465  and  _466
REMARK  198  A    between atoms: _469  and  _471
REMARK  199  A    between atoms: _471  and  _472
REMARK  200  A    between atoms: _471  and  _474
REMARK  201  A    between atoms: _474  and  _475
REMARK  202  A    between atoms: _480  and  _482
REMARK  203  A    between atoms: _482  and  _483
REMARK  204  A    between atoms: _482  and  _485
REMARK  205  A    between atoms: _485  and  _486
REMARK  206  A    between atoms: _491  and  _492
REMARK  207  A    between atoms: _494  and  _496
REMARK  208  A    between atoms: _496  and  _497
REMARK  209  A    between atoms: _496  and  _499
REMARK  210  A    between atoms: _499  and  _500
REMARK  211  A    between atoms: _500  and  _501
REMARK  212  A    between atoms: _503  and  _505
REMARK  213  A    between atoms: _505  and  _506
REMARK  214  A    between atoms: _505  and  _508
REMARK  215  A    between atoms: _508  and  _509
REMARK  216  A    between atoms: _512  and  _514
REMARK  217  A    between atoms: _514  and  _515
REMARK  218  A    between atoms: _514  and  _517
REMARK  219  A    between atoms: _517  and  _518
REMARK  220  A    between atoms: _520  and  _522
REMARK  221  A    between atoms: _522  and  _523
REMARK  222  A    between atoms: _522  and  _525
REMARK  223  A    between atoms: _525  and  _526
REMARK  224  A    between atoms: _531  and  _532
REMARK  225  A    between atoms: _534  and  _536
REMARK  226  A    between atoms: _536  and  _537
REMARK  227  A    between atoms: _536  and  _539
REMARK  228  A    between atoms: _539  and  _540
REMARK                            x       y       z     vdW  Elec       q    Type
REMARK                         _______ _______ _______ _____ _____    ______ ____
ROOT
ATOM      1  O   HOH     1      28.983   3.656  22.897  0.00  0.00    +0.000 OA
ENDROOT
TORSDOF 0
REMARK  Name = ../refined-set-2016/4qdk/4qdk_pocket.pdb
REMARK  228 active torsions:
REMARK  status: ('A' for Active; 'I' for Inactive)
REMARK    1  A    between atoms: _1  and  _3
REMARK    2  A    between atoms: _3  and  _4
REMARK    3  A    between atoms: _3  and  _6
REMARK    4  A    between atoms: _6  and  _7
REMARK    5  A    between atoms: _10  and  _12
REMARK    6  A    between atoms: _12  and  _13
REMARK    7  A    between atoms: _12  and  _15
REMARK    8  A    between atoms: _15  and  _16
REMARK    9  A    between atoms: _16  and  _17
REMARK   10  A    between atoms: _17  and  _18
REMARK   11  A    between atoms: _18  and  _19
REMARK   12  A    between atoms: _23  and  _25
REMARK   13  A    between atoms: _25  and  _26
REMARK   14  A    between atoms: _25  and  _28
REMARK   15  A    between atoms: _28  and  _29
REMARK   16  A    between atoms: _32  and  _34
REMARK   17  A    between atoms: _34  and  _35
REMARK   18  A    between atoms: _34  and  _37
REMARK   19  A    between atoms: _40  and  _42
REMARK   20  A    between atoms: _42  and  _43
REMARK   21  A    between atoms: _42  and  _45
REMARK   22  A    between atoms: _45  and  _46
REMARK   23  A    between atoms: _46  and  _47
REMARK   24  A    between atoms: _47  and  _48
REMARK   25  A    between atoms: _57  and  _59
REMARK   26  A    between atoms: _59  and  _60
REMARK   27  A    between atoms: _59  and  _62
REMARK   28  A    between atoms: _62  and  _63
REMARK   29  A    between atoms: _66  and  _68
REMARK   30  A    between atoms: _68  and  _69
REMARK   31  A    between atoms: _68  and  _71
REMARK   32  A    between atoms: _71  and  _72
REMARK   33  A    between atoms: _77  and  _78
REMARK   34  A    between atoms: _80  and  _82
REMARK   35  A    between atoms: _82  and  _83
REMARK   36  A    between atoms: _82  and  _85
REMARK   37  A    between atoms: _85  and  _86
REMARK   38  A    between atoms: _92  and  _94
REMARK   39  A    between atoms: _94  and  _95
REMARK   40  A    between atoms: _94  and  _97
REMARK   41  A    between atoms: _97  and  _98
REMARK   42  A    between atoms: _103  and  _105
REMARK   43  A    between atoms: _105  and  _106
REMARK   44  A    between atoms: _108  and  _110
REMARK   45  A    between atoms: _110  and  _111
REMARK   46  A    between atoms: _110  and  _113
REMARK   47  A    between atoms: _113  and  _114
REMARK   48  A    between atoms: _120  and  _122
REMARK   49  A    between atoms: _122  and  _123
REMARK   50  A    between atoms: _122  and  _125
REMARK   51  A    between atoms: _125  and  _126
REMARK   52  A    between atoms: _136  and  _138
REMARK   53  A    between atoms: _138  and  _139
REMARK   54  A    between atoms: _138  and  _141
REMARK   55  A    between atoms: _141  and  _142
REMARK   56  A    between atoms: _147  and  _148
REMARK   57  A    between atoms: _150  and  _152
REMARK   58  A    between atoms: _152  and  _153
REMARK   59  A    between atoms: _152  and  _155
REMARK   60  A    between atoms: _155  and  _156
REMARK   61  A    between atoms: _161  and  _163
REMARK   62  A    between atoms: _163  and  _164
REMARK   63  A    between atoms: _163  and  _166
REMARK   64  A    between atoms: _166  and  _167
REMARK   65  A    between atoms: _167  and  _168
REMARK   66  A    between atoms: _173  and  _175
REMARK   67  A    between atoms: _175  and  _176
REMARK   68  A    between atoms: _175  and  _178
REMARK   69  A    between atoms: _178  and  _179
REMARK   70  A    between atoms: _182  and  _184
REMARK   71  A    between atoms: _184  and  _185
REMARK   72  A    between atoms: _184  and  _187
REMARK   73  A    between atoms: _190  and  _192
REMARK   74  A    between atoms: _192  and  _193
REMARK   75  A    between atoms: _192  and  _195
REMARK   76  A    between atoms: _195  and  _196
REMARK   77  A    between atoms: _199  and  _201
REMARK   78  A    between atoms: _201  and  _202
REMARK   79  A    between atoms: _205  and  _207
REMARK   80  A    between atoms: _207  and  _208
REMARK   81  A    between atoms: _210  and  _212
REMARK   82  A    between atoms: _212  and  _213
REMARK   83  A    between atoms: _212  and  _215
REMARK   84  A    between atoms: _217  and  _219
REMARK   85  A    between atoms: _219  and  _220
REMARK   86  A    between atoms: _222  and  _224
REMARK   87  A    between atoms: _224  and  _225
REMARK   88  A    between atoms: _224  and  _227
REMARK   89  A    between atoms: _230  and  _232
REMARK   90  A    between atoms: _232  and  _233
REMARK   91  A    between atoms: _235  and  _237
REMARK   92  A    between atoms: _237  and  _238
REMARK   93  A    between atoms: _237  and  _240
REMARK   94  A    between atoms: _240  and  _241
REMARK   95  A    between atoms: _243  and  _245
REMARK   96  A    between atoms: _245  and  _246
REMARK   97  A    between atoms: _245  and  _248
REMARK   98  A    between atoms: _248  and  _249
REMARK   99  A    between atoms: _252  and  _254
REMARK  100  A    between atoms: _254  and  _255
REMARK  101  A    between atoms: _254  and  _257
REMARK  102  A    between atoms: _257  and  _258
REMARK  103  A    between atoms: _260  and  _262
REMARK  104  A    between atoms: _262  and  _263
REMARK  105  A    between atoms: _262  and  _265
REMARK  106  A    between atoms: _265  and  _266
REMARK  107  A    between atoms: _268  and  _270
REMARK  108  A    between atoms: _270  and  _271
REMARK  109  A    between atoms: _270  and  _273
REMARK  110  A    between atoms: _273  and  _274
REMARK  111  A    between atoms: _277  and  _279
REMARK  112  A    between atoms: _279  and  _280
REMARK  113  A    between atoms: _279  and  _282
REMARK  114  A    between atoms: _282  and  _283
REMARK  115  A    between atoms: _286  and  _288
REMARK  116  A    between atoms: _288  and  _289
REMARK  117  A    between atoms: _288  and  _291
REMARK  118  A    between atoms: _291  and  _292
REMARK  119  A    between atoms: _294  and  _296
REMARK  120  A    between atoms: _296  and  _297
REMARK  121  A    between atoms: _296  and  _299
REMARK  122  A    between atoms: _299  and  _300
REMARK  123  A    between atoms: _300  and  _301
REMARK  124  A    between atoms: _304  and  _306
REMARK  125  A    between atoms: _306  and  _307
REMARK  126  A    between atoms: _306  and  _309
REMARK  127  A    between atoms: _309  and  _310
REMARK  128  A    between atoms: _310  and  _311
REMARK  129  A    between atoms: _311  and  _312
REMARK  130  A    between atoms: _312  and  _313
REMARK  131  A    between atoms: _317  and  _319
REMARK  132  A    between atoms: _319  and  _320
REMARK  133  A    between atoms: _319  and  _322
REMARK  134  A    between atoms: _322  and  _323
REMARK  135  A    between atoms: _323  and  _324
REMARK  136  A    between atoms: _326  and  _328
REMARK  137  A    between atoms: _328  and  _329
REMARK  138  A    between atoms: _328  and  _331
REMARK  139  A    between atoms: _334  and  _336
REMARK  140  A    between atoms: _336  and  _337
REMARK  141  A    between atoms: _336  and  _339
REMARK  142  A    between atoms: _339  and  _340
REMARK  143  A    between atoms: _340  and  _341
REMARK  144  A    between atoms: _343  and  _345
REMARK  145  A    between atoms: _345  and  _346
REMARK  146  A    between atoms: _345  and  _348
REMARK  147  A    between atoms: _348  and  _349
REMARK  148  A    between atoms: _352  and  _354
REMARK  149  A    between atoms: _354  and  _355
REMARK  150  A    between atoms: _354  and  _357
REMARK  151  A    between atoms: _357  and  _358
REMARK  152  A    between atoms: _358  and  _359
REMARK  153  A    between atoms: _364  and  _366
REMARK  154  A    between atoms: _366  and  _367
REMARK  155  A    between atoms: _366  and  _369
REMARK  156  A    between atoms: _369  and  _370
REMARK  157  A    between atoms: _373  and  _375
REMARK  158  A    between atoms: _375  and  _376
REMARK  159  A    between atoms: _375  and  _378
REMARK  160  A    between atoms: _378  and  _379
REMARK  161  A    between atoms: _382  and  _384
REMARK  162  A    between atoms: _384  and  _385
REMARK  163  A    between atoms: _388  and  _390
REMARK  164  A    between atoms: _390  and  _391
REMARK  165  A    between atoms: _390  and  _393
REMARK  166  A    between atoms: _393  and  _394
REMARK  167  A    between atoms: _394  and  _395
REMARK  168  A    between atoms: _400  and  _402
REMARK  169  A    between atoms: _402  and  _403
REMARK  170  A    between atoms: _402  and  _405
REMARK  171  A    between atoms: _405  and  _406
REMARK  172  A    between atoms: _409  and  _411
REMARK  173  A    between atoms: _411  and  _412
REMARK  174  A    between atoms: _411  and  _414
REMARK  175  A    between atoms: _414  and  _415
REMARK  176  A    between atoms: _418  and  _420
REMARK  177  A    between atoms: _420  and  _421
REMARK  178  A    between atoms: _420  and  _423
REMARK  179  A    between atoms: _425  and  _427
REMARK  180  A    between atoms: _427  and  _428
REMARK  181  A    between atoms: _427  and  _430
REMARK  182  A    between atoms: _430  and  _431
REMARK  183  A    between atoms: _434  and  _436
REMARK  184  A    between atoms: _436  and  _437
REMARK  185  A    between atoms: _436  and  _439
REMARK  186  A    between atoms: _439  and  _440
REMARK  187  A    between atoms: _443  and  _445
REMARK  188  A    between atoms: _445  and  _446
REMARK  189  A    between atoms: _445  and  _448
REMARK  190  A    between atoms: _451  and  _453
REMARK  191  A    between atoms: _453  and  _454
REMARK  192  A    between atoms: _453  and  _456
REMARK  193  A    between atoms: _456  and  _457
REMARK  194  A    between atoms: _460  and  _462
REMARK  195  A    between atoms: _462  and  _463
REMARK  196  A    between atoms: _462  and  _465
REMARK  197  A    between atoms: _465  and  _466
REMARK  198  A    between atoms: _469  and  _471
REMARK  199  A    between atoms: _471  and  _472
REMARK  200  A    between atoms: _471  and  _474
REMARK  201  A    between atoms: _474  and  _475
REMARK  202  A    between atoms: _480  and  _482
REMARK  203  A    between atoms: _482  and  _483
REMARK  204  A    between atoms: _482  and  _485
REMARK  205  A    between atoms: _485  and  _486
REMARK  206  A    between atoms: _491  and  _492
REMARK  207  A    between atoms: _494  and  _496
REMARK  208  A    between atoms: _496  and  _497
REMARK  209  A    between atoms: _496  and  _499
REMARK  210  A    between atoms: _499  and  _500
REMARK  211  A    between atoms: _500  and  _501
REMARK  212  A    between atoms: _503  and  _505
REMARK  213  A    between atoms: _505  and  _506
REMARK  214  A    between atoms: _505  and  _508
REMARK  215  A    between atoms: _508  and  _509
REMARK  216  A    between atoms: _512  and  _514
REMARK  217  A    between atoms: _514  and  _515
REMARK  218  A    between atoms: _514  and  _517
REMARK  219  A    between atoms: _517  and  _518
REMARK  220  A    between atoms: _520  and  _522
REMARK  221  A    between atoms: _522  and  _523
REMARK  222  A    between atoms: _522  and  _525
REMARK  223  A    between atoms: _525  and  _526
REMARK  224  A    between atoms: _531  and  _532
REMARK  225  A    between atoms: _534  and  _536
REMARK  226  A    between atoms: _536  and  _537
REMARK  227  A    between atoms: _536  and  _539
REMARK  228  A    between atoms: _539  and  _540
REMARK                            x       y       z     vdW  Elec       q    Type
REMARK                         _______ _______ _______ _____ _____    ______ ____
ROOT
ATOM      1  O   HOH     1      23.816   2.069   0.759  0.00  0.00    +0.000 OA
ENDROOT
TORSDOF 0
REMARK  Name = ../refined-set-2016/4qdk/4qdk_pocket.pdb
REMARK  228 active torsions:
REMARK  status: ('A' for Active; 'I' for Inactive)
REMARK    1  A    between atoms: _1  and  _3
REMARK    2  A    between atoms: _3  and  _4
REMARK    3  A    between atoms: _3  and  _6
REMARK    4  A    between atoms: _6  and  _7
REMARK    5  A    between atoms: _10  and  _12
REMARK    6  A    between atoms: _12  and  _13
REMARK    7  A    between atoms: _12  and  _15
REMARK    8  A    between atoms: _15  and  _16
REMARK    9  A    between atoms: _16  and  _17
REMARK   10  A    between atoms: _17  and  _18
REMARK   11  A    between atoms: _18  and  _19
REMARK   12  A    between atoms: _23  and  _25
REMARK   13  A    between atoms: _25  and  _26
REMARK   14  A    between atoms: _25  and  _28
REMARK   15  A    between atoms: _28  and  _29
REMARK   16  A    between atoms: _32  and  _34
REMARK   17  A    between atoms: _34  and  _35
REMARK   18  A    between atoms: _34  and  _37
REMARK   19  A    between atoms: _40  and  _42
REMARK   20  A    between atoms: _42  and  _43
REMARK   21  A    between atoms: _42  and  _45
REMARK   22  A    between atoms: _45  and  _46
REMARK   23  A    between atoms: _46  and  _47
REMARK   24  A    between atoms: _47  and  _48
REMARK   25  A    between atoms: _57  and  _59
REMARK   26  A    between atoms: _59  and  _60
REMARK   27  A    between atoms: _59  and  _62
REMARK   28  A    between atoms: _62  and  _63
REMARK   29  A    between atoms: _66  and  _68
REMARK   30  A    between atoms: _68  and  _69
REMARK   31  A    between atoms: _68  and  _71
REMARK   32  A    between atoms: _71  and  _72
REMARK   33  A    between atoms: _77  and  _78
REMARK   34  A    between atoms: _80  and  _82
REMARK   35  A    between atoms: _82  and  _83
REMARK   36  A    between atoms: _82  and  _85
REMARK   37  A    between atoms: _85  and  _86
REMARK   38  A    between atoms: _92  and  _94
REMARK   39  A    between atoms: _94  and  _95
REMARK   40  A    between atoms: _94  and  _97
REMARK   41  A    between atoms: _97  and  _98
REMARK   42  A    between atoms: _103  and  _105
REMARK   43  A    between atoms: _105  and  _106
REMARK   44  A    between atoms: _108  and  _110
REMARK   45  A    between atoms: _110  and  _111
REMARK   46  A    between atoms: _110  and  _113
REMARK   47  A    between atoms: _113  and  _114
REMARK   48  A    between atoms: _120  and  _122
REMARK   49  A    between atoms: _122  and  _123
REMARK   50  A    between atoms: _122  and  _125
REMARK   51  A    between atoms: _125  and  _126
REMARK   52  A    between atoms: _136  and  _138
REMARK   53  A    between atoms: _138  and  _139
REMARK   54  A    between atoms: _138  and  _141
REMARK   55  A    between atoms: _141  and  _142
REMARK   56  A    between atoms: _147  and  _148
REMARK   57  A    between atoms: _150  and  _152
REMARK   58  A    between atoms: _152  and  _153
REMARK   59  A    between atoms: _152  and  _155
REMARK   60  A    between atoms: _155  and  _156
REMARK   61  A    between atoms: _161  and  _163
REMARK   62  A    between atoms: _163  and  _164
REMARK   63  A    between atoms: _163  and  _166
REMARK   64  A    between atoms: _166  and  _167
REMARK   65  A    between atoms: _167  and  _168
REMARK   66  A    between atoms: _173  and  _175
REMARK   67  A    between atoms: _175  and  _176
REMARK   68  A    between atoms: _175  and  _178
REMARK   69  A    between atoms: _178  and  _179
REMARK   70  A    between atoms: _182  and  _184
REMARK   71  A    between atoms: _184  and  _185
REMARK   72  A    between atoms: _184  and  _187
REMARK   73  A    between atoms: _190  and  _192
REMARK   74  A    between atoms: _192  and  _193
REMARK   75  A    between atoms: _192  and  _195
REMARK   76  A    between atoms: _195  and  _196
REMARK   77  A    between atoms: _199  and  _201
REMARK   78  A    between atoms: _201  and  _202
REMARK   79  A    between atoms: _205  and  _207
REMARK   80  A    between atoms: _207  and  _208
REMARK   81  A    between atoms: _210  and  _212
REMARK   82  A    between atoms: _212  and  _213
REMARK   83  A    between atoms: _212  and  _215
REMARK   84  A    between atoms: _217  and  _219
REMARK   85  A    between atoms: _219  and  _220
REMARK   86  A    between atoms: _222  and  _224
REMARK   87  A    between atoms: _224  and  _225
REMARK   88  A    between atoms: _224  and  _227
REMARK   89  A    between atoms: _230  and  _232
REMARK   90  A    between atoms: _232  and  _233
REMARK   91  A    between atoms: _235  and  _237
REMARK   92  A    between atoms: _237  and  _238
REMARK   93  A    between atoms: _237  and  _240
REMARK   94  A    between atoms: _240  and  _241
REMARK   95  A    between atoms: _243  and  _245
REMARK   96  A    between atoms: _245  and  _246
REMARK   97  A    between atoms: _245  and  _248
REMARK   98  A    between atoms: _248  and  _249
REMARK   99  A    between atoms: _252  and  _254
REMARK  100  A    between atoms: _254  and  _255
REMARK  101  A    between atoms: _254  and  _257
REMARK  102  A    between atoms: _257  and  _258
REMARK  103  A    between atoms: _260  and  _262
REMARK  104  A    between atoms: _262  and  _263
REMARK  105  A    between atoms: _262  and  _265
REMARK  106  A    between atoms: _265  and  _266
REMARK  107  A    between atoms: _268  and  _270
REMARK  108  A    between atoms: _270  and  _271
REMARK  109  A    between atoms: _270  and  _273
REMARK  110  A    between atoms: _273  and  _274
REMARK  111  A    between atoms: _277  and  _279
REMARK  112  A    between atoms: _279  and  _280
REMARK  113  A    between atoms: _279  and  _282
REMARK  114  A    between atoms: _282  and  _283
REMARK  115  A    between atoms: _286  and  _288
REMARK  116  A    between atoms: _288  and  _289
REMARK  117  A    between atoms: _288  and  _291
REMARK  118  A    between atoms: _291  and  _292
REMARK  119  A    between atoms: _294  and  _296
REMARK  120  A    between atoms: _296  and  _297
REMARK  121  A    between atoms: _296  and  _299
REMARK  122  A    between atoms: _299  and  _300
REMARK  123  A    between atoms: _300  and  _301
REMARK  124  A    between atoms: _304  and  _306
REMARK  125  A    between atoms: _306  and  _307
REMARK  126  A    between atoms: _306  and  _309
REMARK  127  A    between atoms: _309  and  _310
REMARK  128  A    between atoms: _310  and  _311
REMARK  129  A    between atoms: _311  and  _312
REMARK  130  A    between atoms: _312  and  _313
REMARK  131  A    between atoms: _317  and  _319
REMARK  132  A    between atoms: _319  and  _320
REMARK  133  A    between atoms: _319  and  _322
REMARK  134  A    between atoms: _322  and  _323
REMARK  135  A    between atoms: _323  and  _324
REMARK  136  A    between atoms: _326  and  _328
REMARK  137  A    between atoms: _328  and  _329
REMARK  138  A    between atoms: _328  and  _331
REMARK  139  A    between atoms: _334  and  _336
REMARK  140  A    between atoms: _336  and  _337
REMARK  141  A    between atoms: _336  and  _339
REMARK  142  A    between atoms: _339  and  _340
REMARK  143  A    between atoms: _340  and  _341
REMARK  144  A    between atoms: _343  and  _345
REMARK  145  A    between atoms: _345  and  _346
REMARK  146  A    between atoms: _345  and  _348
REMARK  147  A    between atoms: _348  and  _349
REMARK  148  A    between atoms: _352  and  _354
REMARK  149  A    between atoms: _354  and  _355
REMARK  150  A    between atoms: _354  and  _357
REMARK  151  A    between atoms: _357  and  _358
REMARK  152  A    between atoms: _358  and  _359
REMARK  153  A    between atoms: _364  and  _366
REMARK  154  A    between atoms: _366  and  _367
REMARK  155  A    between atoms: _366  and  _369
REMARK  156  A    between atoms: _369  and  _370
REMARK  157  A    between atoms: _373  and  _375
REMARK  158  A    between atoms: _375  and  _376
REMARK  159  A    between atoms: _375  and  _378
REMARK  160  A    between atoms: _378  and  _379
REMARK  161  A    between atoms: _382  and  _384
REMARK  162  A    between atoms: _384  and  _385
REMARK  163  A    between atoms: _388  and  _390
REMARK  164  A    between atoms: _390  and  _391
REMARK  165  A    between atoms: _390  and  _393
REMARK  166  A    between atoms: _393  and  _394
REMARK  167  A    between atoms: _394  and  _395
REMARK  168  A    between atoms: _400  and  _402
REMARK  169  A    between atoms: _402  and  _403
REMARK  170  A    between atoms: _402  and  _405
REMARK  171  A    between atoms: _405  and  _406
REMARK  172  A    between atoms: _409  and  _411
REMARK  173  A    between atoms: _411  and  _412
REMARK  174  A    between atoms: _411  and  _414
REMARK  175  A    between atoms: _414  and  _415
REMARK  176  A    between atoms: _418  and  _420
REMARK  177  A    between atoms: _420  and  _421
REMARK  178  A    between atoms: _420  and  _423
REMARK  179  A    between atoms: _425  and  _427
REMARK  180  A    between atoms: _427  and  _428
REMARK  181  A    between atoms: _427  and  _430
REMARK  182  A    between atoms: _430  and  _431
REMARK  183  A    between atoms: _434  and  _436
REMARK  184  A    between atoms: _436  and  _437
REMARK  185  A    between atoms: _436  and  _439
REMARK  186  A    between atoms: _439  and  _440
REMARK  187  A    between atoms: _443  and  _445
REMARK  188  A    between atoms: _445  and  _446
REMARK  189  A    between atoms: _445  and  _448
REMARK  190  A    between atoms: _451  and  _453
REMARK  191  A    between atoms: _453  and  _454
REMARK  192  A    between atoms: _453  and  _456
REMARK  193  A    between atoms: _456  and  _457
REMARK  194  A    between atoms: _460  and  _462
REMARK  195  A    between atoms: _462  and  _463
REMARK  196  A    between atoms: _462  and  _465
REMARK  197  A    between atoms: _465  and  _466
REMARK  198  A    between atoms: _469  and  _471
REMARK  199  A    between atoms: _471  and  _472
REMARK  200  A    between atoms: _471  and  _474
REMARK  201  A    between atoms: _474  and  _475
REMARK  202  A    between atoms: _480  and  _482
REMARK  203  A    between atoms: _482  and  _483
REMARK  204  A    between atoms: _482  and  _485
REMARK  205  A    between atoms: _485  and  _486
REMARK  206  A    between atoms: _491  and  _492
REMARK  207  A    between atoms: _494  and  _496
REMARK  208  A    between atoms: _496  and  _497
REMARK  209  A    between atoms: _496  and  _499
REMARK  210  A    between atoms: _499  and  _500
REMARK  211  A    between atoms: _500  and  _501
REMARK  212  A    between atoms: _503  and  _505
REMARK  213  A    between atoms: _505  and  _506
REMARK  214  A    between atoms: _505  and  _508
REMARK  215  A    between atoms: _508  and  _509
REMARK  216  A    between atoms: _512  and  _514
REMARK  217  A    between atoms: _514  and  _515
REMARK  218  A    between atoms: _514  and  _517
REMARK  219  A    between atoms: _517  and  _518
REMARK  220  A    between atoms: _520  and  _522
REMARK  221  A    between atoms: _522  and  _523
REMARK  222  A    between atoms: _522  and  _525
REMARK  223  A    between atoms: _525  and  _526
REMARK  224  A    between atoms: _531  and  _532
REMARK  225  A    between atoms: _534  and  _536
REMARK  226  A    between atoms: _536  and  _537
REMARK  227  A    between atoms: _536  and  _539
REMARK  228  A    between atoms: _539  and  _540
REMARK                            x       y       z     vdW  Elec       q    Type
REMARK                         _______ _______ _______ _____ _____    ______ ____
ROOT
ATOM      1  O   HOH     1      25.839   5.009   1.374  0.00  0.00    +0.000 OA
ENDROOT
TORSDOF 0
REMARK  Name = ../refined-set-2016/4qdk/4qdk_pocket.pdb
REMARK  228 active torsions:
REMARK  status: ('A' for Active; 'I' for Inactive)
REMARK    1  A    between atoms: _1  and  _3
REMARK    2  A    between atoms: _3  and  _4
REMARK    3  A    between atoms: _3  and  _6
REMARK    4  A    between atoms: _6  and  _7
REMARK    5  A    between atoms: _10  and  _12
REMARK    6  A    between atoms: _12  and  _13
REMARK    7  A    between atoms: _12  and  _15
REMARK    8  A    between atoms: _15  and  _16
REMARK    9  A    between atoms: _16  and  _17
REMARK   10  A    between atoms: _17  and  _18
REMARK   11  A    between atoms: _18  and  _19
REMARK   12  A    between atoms: _23  and  _25
REMARK   13  A    between atoms: _25  and  _26
REMARK   14  A    between atoms: _25  and  _28
REMARK   15  A    between atoms: _28  and  _29
REMARK   16  A    between atoms: _32  and  _34
REMARK   17  A    between atoms: _34  and  _35
REMARK   18  A    between atoms: _34  and  _37
REMARK   19  A    between atoms: _40  and  _42
REMARK   20  A    between atoms: _42  and  _43
REMARK   21  A    between atoms: _42  and  _45
REMARK   22  A    between atoms: _45  and  _46
REMARK   23  A    between atoms: _46  and  _47
REMARK   24  A    between atoms: _47  and  _48
REMARK   25  A    between atoms: _57  and  _59
REMARK   26  A    between atoms: _59  and  _60
REMARK   27  A    between atoms: _59  and  _62
REMARK   28  A    between atoms: _62  and  _63
REMARK   29  A    between atoms: _66  and  _68
REMARK   30  A    between atoms: _68  and  _69
REMARK   31  A    between atoms: _68  and  _71
REMARK   32  A    between atoms: _71  and  _72
REMARK   33  A    between atoms: _77  and  _78
REMARK   34  A    between atoms: _80  and  _82
REMARK   35  A    between atoms: _82  and  _83
REMARK   36  A    between atoms: _82  and  _85
REMARK   37  A    between atoms: _85  and  _86
REMARK   38  A    between atoms: _92  and  _94
REMARK   39  A    between atoms: _94  and  _95
REMARK   40  A    between atoms: _94  and  _97
REMARK   41  A    between atoms: _97  and  _98
REMARK   42  A    between atoms: _103  and  _105
REMARK   43  A    between atoms: _105  and  _106
REMARK   44  A    between atoms: _108  and  _110
REMARK   45  A    between atoms: _110  and  _111
REMARK   46  A    between atoms: _110  and  _113
REMARK   47  A    between atoms: _113  and  _114
REMARK   48  A    between atoms: _120  and  _122
REMARK   49  A    between atoms: _122  and  _123
REMARK   50  A    between atoms: _122  and  _125
REMARK   51  A    between atoms: _125  and  _126
REMARK   52  A    between atoms: _136  and  _138
REMARK   53  A    between atoms: _138  and  _139
REMARK   54  A    between atoms: _138  and  _141
REMARK   55  A    between atoms: _141  and  _142
REMARK   56  A    between atoms: _147  and  _148
REMARK   57  A    between atoms: _150  and  _152
REMARK   58  A    between atoms: _152  and  _153
REMARK   59  A    between atoms: _152  and  _155
REMARK   60  A    between atoms: _155  and  _156
REMARK   61  A    between atoms: _161  and  _163
REMARK   62  A    between atoms: _163  and  _164
REMARK   63  A    between atoms: _163  and  _166
REMARK   64  A    between atoms: _166  and  _167
REMARK   65  A    between atoms: _167  and  _168
REMARK   66  A    between atoms: _173  and  _175
REMARK   67  A    between atoms: _175  and  _176
REMARK   68  A    between atoms: _175  and  _178
REMARK   69  A    between atoms: _178  and  _179
REMARK   70  A    between atoms: _182  and  _184
REMARK   71  A    between atoms: _184  and  _185
REMARK   72  A    between atoms: _184  and  _187
REMARK   73  A    between atoms: _190  and  _192
REMARK   74  A    between atoms: _192  and  _193
REMARK   75  A    between atoms: _192  and  _195
REMARK   76  A    between atoms: _195  and  _196
REMARK   77  A    between atoms: _199  and  _201
REMARK   78  A    between atoms: _201  and  _202
REMARK   79  A    between atoms: _205  and  _207
REMARK   80  A    between atoms: _207  and  _208
REMARK   81  A    between atoms: _210  and  _212
REMARK   82  A    between atoms: _212  and  _213
REMARK   83  A    between atoms: _212  and  _215
REMARK   84  A    between atoms: _217  and  _219
REMARK   85  A    between atoms: _219  and  _220
REMARK   86  A    between atoms: _222  and  _224
REMARK   87  A    between atoms: _224  and  _225
REMARK   88  A    between atoms: _224  and  _227
REMARK   89  A    between atoms: _230  and  _232
REMARK   90  A    between atoms: _232  and  _233
REMARK   91  A    between atoms: _235  and  _237
REMARK   92  A    between atoms: _237  and  _238
REMARK   93  A    between atoms: _237  and  _240
REMARK   94  A    between atoms: _240  and  _241
REMARK   95  A    between atoms: _243  and  _245
REMARK   96  A    between atoms: _245  and  _246
REMARK   97  A    between atoms: _245  and  _248
REMARK   98  A    between atoms: _248  and  _249
REMARK   99  A    between atoms: _252  and  _254
REMARK  100  A    between atoms: _254  and  _255
REMARK  101  A    between atoms: _254  and  _257
REMARK  102  A    between atoms: _257  and  _258
REMARK  103  A    between atoms: _260  and  _262
REMARK  104  A    between atoms: _262  and  _263
REMARK  105  A    between atoms: _262  and  _265
REMARK  106  A    between atoms: _265  and  _266
REMARK  107  A    between atoms: _268  and  _270
REMARK  108  A    between atoms: _270  and  _271
REMARK  109  A    between atoms: _270  and  _273
REMARK  110  A    between atoms: _273  and  _274
REMARK  111  A    between atoms: _277  and  _279
REMARK  112  A    between atoms: _279  and  _280
REMARK  113  A    between atoms: _279  and  _282
REMARK  114  A    between atoms: _282  and  _283
REMARK  115  A    between atoms: _286  and  _288
REMARK  116  A    between atoms: _288  and  _289
REMARK  117  A    between atoms: _288  and  _291
REMARK  118  A    between atoms: _291  and  _292
REMARK  119  A    between atoms: _294  and  _296
REMARK  120  A    between atoms: _296  and  _297
REMARK  121  A    between atoms: _296  and  _299
REMARK  122  A    between atoms: _299  and  _300
REMARK  123  A    between atoms: _300  and  _301
REMARK  124  A    between atoms: _304  and  _306
REMARK  125  A    between atoms: _306  and  _307
REMARK  126  A    between atoms: _306  and  _309
REMARK  127  A    between atoms: _309  and  _310
REMARK  128  A    between atoms: _310  and  _311
REMARK  129  A    between atoms: _311  and  _312
REMARK  130  A    between atoms: _312  and  _313
REMARK  131  A    between atoms: _317  and  _319
REMARK  132  A    between atoms: _319  and  _320
REMARK  133  A    between atoms: _319  and  _322
REMARK  134  A    between atoms: _322  and  _323
REMARK  135  A    between atoms: _323  and  _324
REMARK  136  A    between atoms: _326  and  _328
REMARK  137  A    between atoms: _328  and  _329
REMARK  138  A    between atoms: _328  and  _331
REMARK  139  A    between atoms: _334  and  _336
REMARK  140  A    between atoms: _336  and  _337
REMARK  141  A    between atoms: _336  and  _339
REMARK  142  A    between atoms: _339  and  _340
REMARK  143  A    between atoms: _340  and  _341
REMARK  144  A    between atoms: _343  and  _345
REMARK  145  A    between atoms: _345  and  _346
REMARK  146  A    between atoms: _345  and  _348
REMARK  147  A    between atoms: _348  and  _349
REMARK  148  A    between atoms: _352  and  _354
REMARK  149  A    between atoms: _354  and  _355
REMARK  150  A    between atoms: _354  and  _357
REMARK  151  A    between atoms: _357  and  _358
REMARK  152  A    between atoms: _358  and  _359
REMARK  153  A    between atoms: _364  and  _366
REMARK  154  A    between atoms: _366  and  _367
REMARK  155  A    between atoms: _366  and  _369
REMARK  156  A    between atoms: _369  and  _370
REMARK  157  A    between atoms: _373  and  _375
REMARK  158  A    between atoms: _375  and  _376
REMARK  159  A    between atoms: _375  and  _378
REMARK  160  A    between atoms: _378  and  _379
REMARK  161  A    between atoms: _382  and  _384
REMARK  162  A    between atoms: _384  and  _385
REMARK  163  A    between atoms: _388  and  _390
REMARK  164  A    between atoms: _390  and  _391
REMARK  165  A    between atoms: _390  and  _393
REMARK  166  A    between atoms: _393  and  _394
REMARK  167  A    between atoms: _394  and  _395
REMARK  168  A    between atoms: _400  and  _402
REMARK  169  A    between atoms: _402  and  _403
REMARK  170  A    between atoms: _402  and  _405
REMARK  171  A    between atoms: _405  and  _406
REMARK  172  A    between atoms: _409  and  _411
REMARK  173  A    between atoms: _411  and  _412
REMARK  174  A    between atoms: _411  and  _414
REMARK  175  A    between atoms: _414  and  _415
REMARK  176  A    between atoms: _418  and  _420
REMARK  177  A    between atoms: _420  and  _421
REMARK  178  A    between atoms: _420  and  _423
REMARK  179  A    between atoms: _425  and  _427
REMARK  180  A    between atoms: _427  and  _428
REMARK  181  A    between atoms: _427  and  _430
REMARK  182  A    between atoms: _430  and  _431
REMARK  183  A    between atoms: _434  and  _436
REMARK  184  A    between atoms: _436  and  _437
REMARK  185  A    between atoms: _436  and  _439
REMARK  186  A    between atoms: _439  and  _440
REMARK  187  A    between atoms: _443  and  _445
REMARK  188  A    between atoms: _445  and  _446
REMARK  189  A    between atoms: _445  and  _448
REMARK  190  A    between atoms: _451  and  _453
REMARK  191  A    between atoms: _453  and  _454
REMARK  192  A    between atoms: _453  and  _456
REMARK  193  A    between atoms: _456  and  _457
REMARK  194  A    between atoms: _460  and  _462
REMARK  195  A    between atoms: _462  and  _463
REMARK  196  A    between atoms: _462  and  _465
REMARK  197  A    between atoms: _465  and  _466
REMARK  198  A    between atoms: _469  and  _471
REMARK  199  A    between atoms: _471  and  _472
REMARK  200  A    between atoms: _471  and  _474
REMARK  201  A    between atoms: _474  and  _475
REMARK  202  A    between atoms: _480  and  _482
REMARK  203  A    between atoms: _482  and  _483
REMARK  204  A    between atoms: _482  and  _485
REMARK  205  A    between atoms: _485  and  _486
REMARK  206  A    between atoms: _491  and  _492
REMARK  207  A    between atoms: _494  and  _496
REMARK  208  A    between atoms: _496  and  _497
REMARK  209  A    between atoms: _496  and  _499
REMARK  210  A    between atoms: _499  and  _500
REMARK  211  A    between atoms: _500  and  _501
REMARK  212  A    between atoms: _503  and  _505
REMARK  213  A    between atoms: _505  and  _506
REMARK  214  A    between atoms: _505  and  _508
REMARK  215  A    between atoms: _508  and  _509
REMARK  216  A    between atoms: _512  and  _514
REMARK  217  A    between atoms: _514  and  _515
REMARK  218  A    between atoms: _514  and  _517
REMARK  219  A    between atoms: _517  and  _518
REMARK  220  A    between atoms: _520  and  _522
REMARK  221  A    between atoms: _522  and  _523
REMARK  222  A    between atoms: _522  and  _525
REMARK  223  A    between atoms: _525  and  _526
REMARK  224  A    between atoms: _531  and  _532
REMARK  225  A    between atoms: _534  and  _536
REMARK  226  A    between atoms: _536  and  _537
REMARK  227  A    between atoms: _536  and  _539
REMARK  228  A    between atoms: _539  and  _540
REMARK                            x       y       z     vdW  Elec       q    Type
REMARK                         _______ _______ _______ _____ _____    ______ ____
ROOT
ATOM      1  O   HOH     1      22.073  -2.269   7.687  0.00  0.00    +0.000 OA
ENDROOT
TORSDOF 0
REMARK  Name = ../refined-set-2016/4qdk/4qdk_pocket.pdb
REMARK  228 active torsions:
REMARK  status: ('A' for Active; 'I' for Inactive)
REMARK    1  A    between atoms: _1  and  _3
REMARK    2  A    between atoms: _3  and  _4
REMARK    3  A    between atoms: _3  and  _6
REMARK    4  A    between atoms: _6  and  _7
REMARK    5  A    between atoms: _10  and  _12
REMARK    6  A    between atoms: _12  and  _13
REMARK    7  A    between atoms: _12  and  _15
REMARK    8  A    between atoms: _15  and  _16
REMARK    9  A    between atoms: _16  and  _17
REMARK   10  A    between atoms: _17  and  _18
REMARK   11  A    between atoms: _18  and  _19
REMARK   12  A    between atoms: _23  and  _25
REMARK   13  A    between atoms: _25  and  _26
REMARK   14  A    between atoms: _25  and  _28
REMARK   15  A    between atoms: _28  and  _29
REMARK   16  A    between atoms: _32  and  _34
REMARK   17  A    between atoms: _34  and  _35
REMARK   18  A    between atoms: _34  and  _37
REMARK   19  A    between atoms: _40  and  _42
REMARK   20  A    between atoms: _42  and  _43
REMARK   21  A    between atoms: _42  and  _45
REMARK   22  A    between atoms: _45  and  _46
REMARK   23  A    between atoms: _46  and  _47
REMARK   24  A    between atoms: _47  and  _48
REMARK   25  A    between atoms: _57  and  _59
REMARK   26  A    between atoms: _59  and  _60
REMARK   27  A    between atoms: _59  and  _62
REMARK   28  A    between atoms: _62  and  _63
REMARK   29  A    between atoms: _66  and  _68
REMARK   30  A    between atoms: _68  and  _69
REMARK   31  A    between atoms: _68  and  _71
REMARK   32  A    between atoms: _71  and  _72
REMARK   33  A    between atoms: _77  and  _78
REMARK   34  A    between atoms: _80  and  _82
REMARK   35  A    between atoms: _82  and  _83
REMARK   36  A    between atoms: _82  and  _85
REMARK   37  A    between atoms: _85  and  _86
REMARK   38  A    between atoms: _92  and  _94
REMARK   39  A    between atoms: _94  and  _95
REMARK   40  A    between atoms: _94  and  _97
REMARK   41  A    between atoms: _97  and  _98
REMARK   42  A    between atoms: _103  and  _105
REMARK   43  A    between atoms: _105  and  _106
REMARK   44  A    between atoms: _108  and  _110
REMARK   45  A    between atoms: _110  and  _111
REMARK   46  A    between atoms: _110  and  _113
REMARK   47  A    between atoms: _113  and  _114
REMARK   48  A    between atoms: _120  and  _122
REMARK   49  A    between atoms: _122  and  _123
REMARK   50  A    between atoms: _122  and  _125
REMARK   51  A    between atoms: _125  and  _126
REMARK   52  A    between atoms: _136  and  _138
REMARK   53  A    between atoms: _138  and  _139
REMARK   54  A    between atoms: _138  and  _141
REMARK   55  A    between atoms: _141  and  _142
REMARK   56  A    between atoms: _147  and  _148
REMARK   57  A    between atoms: _150  and  _152
REMARK   58  A    between atoms: _152  and  _153
REMARK   59  A    between atoms: _152  and  _155
REMARK   60  A    between atoms: _155  and  _156
REMARK   61  A    between atoms: _161  and  _163
REMARK   62  A    between atoms: _163  and  _164
REMARK   63  A    between atoms: _163  and  _166
REMARK   64  A    between atoms: _166  and  _167
REMARK   65  A    between atoms: _167  and  _168
REMARK   66  A    between atoms: _173  and  _175
REMARK   67  A    between atoms: _175  and  _176
REMARK   68  A    between atoms: _175  and  _178
REMARK   69  A    between atoms: _178  and  _179
REMARK   70  A    between atoms: _182  and  _184
REMARK   71  A    between atoms: _184  and  _185
REMARK   72  A    between atoms: _184  and  _187
REMARK   73  A    between atoms: _190  and  _192
REMARK   74  A    between atoms: _192  and  _193
REMARK   75  A    between atoms: _192  and  _195
REMARK   76  A    between atoms: _195  and  _196
REMARK   77  A    between atoms: _199  and  _201
REMARK   78  A    between atoms: _201  and  _202
REMARK   79  A    between atoms: _205  and  _207
REMARK   80  A    between atoms: _207  and  _208
REMARK   81  A    between atoms: _210  and  _212
REMARK   82  A    between atoms: _212  and  _213
REMARK   83  A    between atoms: _212  and  _215
REMARK   84  A    between atoms: _217  and  _219
REMARK   85  A    between atoms: _219  and  _220
REMARK   86  A    between atoms: _222  and  _224
REMARK   87  A    between atoms: _224  and  _225
REMARK   88  A    between atoms: _224  and  _227
REMARK   89  A    between atoms: _230  and  _232
REMARK   90  A    between atoms: _232  and  _233
REMARK   91  A    between atoms: _235  and  _237
REMARK   92  A    between atoms: _237  and  _238
REMARK   93  A    between atoms: _237  and  _240
REMARK   94  A    between atoms: _240  and  _241
REMARK   95  A    between atoms: _243  and  _245
REMARK   96  A    between atoms: _245  and  _246
REMARK   97  A    between atoms: _245  and  _248
REMARK   98  A    between atoms: _248  and  _249
REMARK   99  A    between atoms: _252  and  _254
REMARK  100  A    between atoms: _254  and  _255
REMARK  101  A    between atoms: _254  and  _257
REMARK  102  A    between atoms: _257  and  _258
REMARK  103  A    between atoms: _260  and  _262
REMARK  104  A    between atoms: _262  and  _263
REMARK  105  A    between atoms: _262  and  _265
REMARK  106  A    between atoms: _265  and  _266
REMARK  107  A    between atoms: _268  and  _270
REMARK  108  A    between atoms: _270  and  _271
REMARK  109  A    between atoms: _270  and  _273
REMARK  110  A    between atoms: _273  and  _274
REMARK  111  A    between atoms: _277  and  _279
REMARK  112  A    between atoms: _279  and  _280
REMARK  113  A    between atoms: _279  and  _282
REMARK  114  A    between atoms: _282  and  _283
REMARK  115  A    between atoms: _286  and  _288
REMARK  116  A    between atoms: _288  and  _289
REMARK  117  A    between atoms: _288  and  _291
REMARK  118  A    between atoms: _291  and  _292
REMARK  119  A    between atoms: _294  and  _296
REMARK  120  A    between atoms: _296  and  _297
REMARK  121  A    between atoms: _296  and  _299
REMARK  122  A    between atoms: _299  and  _300
REMARK  123  A    between atoms: _300  and  _301
REMARK  124  A    between atoms: _304  and  _306
REMARK  125  A    between atoms: _306  and  _307
REMARK  126  A    between atoms: _306  and  _309
REMARK  127  A    between atoms: _309  and  _310
REMARK  128  A    between atoms: _310  and  _311
REMARK  129  A    between atoms: _311  and  _312
REMARK  130  A    between atoms: _312  and  _313
REMARK  131  A    between atoms: _317  and  _319
REMARK  132  A    between atoms: _319  and  _320
REMARK  133  A    between atoms: _319  and  _322
REMARK  134  A    between atoms: _322  and  _323
REMARK  135  A    between atoms: _323  and  _324
REMARK  136  A    between atoms: _326  and  _328
REMARK  137  A    between atoms: _328  and  _329
REMARK  138  A    between atoms: _328  and  _331
REMARK  139  A    between atoms: _334  and  _336
REMARK  140  A    between atoms: _336  and  _337
REMARK  141  A    between atoms: _336  and  _339
REMARK  142  A    between atoms: _339  and  _340
REMARK  143  A    between atoms: _340  and  _341
REMARK  144  A    between atoms: _343  and  _345
REMARK  145  A    between atoms: _345  and  _346
REMARK  146  A    between atoms: _345  and  _348
REMARK  147  A    between atoms: _348  and  _349
REMARK  148  A    between atoms: _352  and  _354
REMARK  149  A    between atoms: _354  and  _355
REMARK  150  A    between atoms: _354  and  _357
REMARK  151  A    between atoms: _357  and  _358
REMARK  152  A    between atoms: _358  and  _359
REMARK  153  A    between atoms: _364  and  _366
REMARK  154  A    between atoms: _366  and  _367
REMARK  155  A    between atoms: _366  and  _369
REMARK  156  A    between atoms: _369  and  _370
REMARK  157  A    between atoms: _373  and  _375
REMARK  158  A    between atoms: _375  and  _376
REMARK  159  A    between atoms: _375  and  _378
REMARK  160  A    between atoms: _378  and  _379
REMARK  161  A    between atoms: _382  and  _384
REMARK  162  A    between atoms: _384  and  _385
REMARK  163  A    between atoms: _388  and  _390
REMARK  164  A    between atoms: _390  and  _391
REMARK  165  A    between atoms: _390  and  _393
REMARK  166  A    between atoms: _393  and  _394
REMARK  167  A    between atoms: _394  and  _395
REMARK  168  A    between atoms: _400  and  _402
REMARK  169  A    between atoms: _402  and  _403
REMARK  170  A    between atoms: _402  and  _405
REMARK  171  A    between atoms: _405  and  _406
REMARK  172  A    between atoms: _409  and  _411
REMARK  173  A    between atoms: _411  and  _412
REMARK  174  A    between atoms: _411  and  _414
REMARK  175  A    between atoms: _414  and  _415
REMARK  176  A    between atoms: _418  and  _420
REMARK  177  A    between atoms: _420  and  _421
REMARK  178  A    between atoms: _420  and  _423
REMARK  179  A    between atoms: _425  and  _427
REMARK  180  A    between atoms: _427  and  _428
REMARK  181  A    between atoms: _427  and  _430
REMARK  182  A    between atoms: _430  and  _431
REMARK  183  A    between atoms: _434  and  _436
REMARK  184  A    between atoms: _436  and  _437
REMARK  185  A    between atoms: _436  and  _439
REMARK  186  A    between atoms: _439  and  _440
REMARK  187  A    between atoms: _443  and  _445
REMARK  188  A    between atoms: _445  and  _446
REMARK  189  A    between atoms: _445  and  _448
REMARK  190  A    between atoms: _451  and  _453
REMARK  191  A    between atoms: _453  and  _454
REMARK  192  A    between atoms: _453  and  _456
REMARK  193  A    between atoms: _456  and  _457
REMARK  194  A    between atoms: _460  and  _462
REMARK  195  A    between atoms: _462  and  _463
REMARK  196  A    between atoms: _462  and  _465
REMARK  197  A    between atoms: _465  and  _466
REMARK  198  A    between atoms: _469  and  _471
REMARK  199  A    between atoms: _471  and  _472
REMARK  200  A    between atoms: _471  and  _474
REMARK  201  A    between atoms: _474  and  _475
REMARK  202  A    between atoms: _480  and  _482
REMARK  203  A    between atoms: _482  and  _483
REMARK  204  A    between atoms: _482  and  _485
REMARK  205  A    between atoms: _485  and  _486
REMARK  206  A    between atoms: _491  and  _492
REMARK  207  A    between atoms: _494  and  _496
REMARK  208  A    between atoms: _496  and  _497
REMARK  209  A    between atoms: _496  and  _499
REMARK  210  A    between atoms: _499  and  _500
REMARK  211  A    between atoms: _500  and  _501
REMARK  212  A    between atoms: _503  and  _505
REMARK  213  A    between atoms: _505  and  _506
REMARK  214  A    between atoms: _505  and  _508
REMARK  215  A    between atoms: _508  and  _509
REMARK  216  A    between atoms: _512  and  _514
REMARK  217  A    between atoms: _514  and  _515
REMARK  218  A    between atoms: _514  and  _517
REMARK  219  A    between atoms: _517  and  _518
REMARK  220  A    between atoms: _520  and  _522
REMARK  221  A    between atoms: _522  and  _523
REMARK  222  A    between atoms: _522  and  _525
REMARK  223  A    between atoms: _525  and  _526
REMARK  224  A    between atoms: _531  and  _532
REMARK  225  A    between atoms: _534  and  _536
REMARK  226  A    between atoms: _536  and  _537
REMARK  227  A    between atoms: _536  and  _539
REMARK  228  A    between atoms: _539  and  _540
REMARK                            x       y       z     vdW  Elec       q    Type
REMARK                         _______ _______ _______ _____ _____    ______ ____
ROOT
ATOM      1  O   HOH     1      27.795   7.671  21.081  0.00  0.00    +0.000 OA
ENDROOT
TORSDOF 0
REMARK  Name = ../refined-set-2016/4qdk/4qdk_pocket.pdb
REMARK  228 active torsions:
REMARK  status: ('A' for Active; 'I' for Inactive)
REMARK    1  A    between atoms: _1  and  _3
REMARK    2  A    between atoms: _3  and  _4
REMARK    3  A    between atoms: _3  and  _6
REMARK    4  A    between atoms: _6  and  _7
REMARK    5  A    between atoms: _10  and  _12
REMARK    6  A    between atoms: _12  and  _13
REMARK    7  A    between atoms: _12  and  _15
REMARK    8  A    between atoms: _15  and  _16
REMARK    9  A    between atoms: _16  and  _17
REMARK   10  A    between atoms: _17  and  _18
REMARK   11  A    between atoms: _18  and  _19
REMARK   12  A    between atoms: _23  and  _25
REMARK   13  A    between atoms: _25  and  _26
REMARK   14  A    between atoms: _25  and  _28
REMARK   15  A    between atoms: _28  and  _29
REMARK   16  A    between atoms: _32  and  _34
REMARK   17  A    between atoms: _34  and  _35
REMARK   18  A    between atoms: _34  and  _37
REMARK   19  A    between atoms: _40  and  _42
REMARK   20  A    between atoms: _42  and  _43
REMARK   21  A    between atoms: _42  and  _45
REMARK   22  A    between atoms: _45  and  _46
REMARK   23  A    between atoms: _46  and  _47
REMARK   24  A    between atoms: _47  and  _48
REMARK   25  A    between atoms: _57  and  _59
REMARK   26  A    between atoms: _59  and  _60
REMARK   27  A    between atoms: _59  and  _62
REMARK   28  A    between atoms: _62  and  _63
REMARK   29  A    between atoms: _66  and  _68
REMARK   30  A    between atoms: _68  and  _69
REMARK   31  A    between atoms: _68  and  _71
REMARK   32  A    between atoms: _71  and  _72
REMARK   33  A    between atoms: _77  and  _78
REMARK   34  A    between atoms: _80  and  _82
REMARK   35  A    between atoms: _82  and  _83
REMARK   36  A    between atoms: _82  and  _85
REMARK   37  A    between atoms: _85  and  _86
REMARK   38  A    between atoms: _92  and  _94
REMARK   39  A    between atoms: _94  and  _95
REMARK   40  A    between atoms: _94  and  _97
REMARK   41  A    between atoms: _97  and  _98
REMARK   42  A    between atoms: _103  and  _105
REMARK   43  A    between atoms: _105  and  _106
REMARK   44  A    between atoms: _108  and  _110
REMARK   45  A    between atoms: _110  and  _111
REMARK   46  A    between atoms: _110  and  _113
REMARK   47  A    between atoms: _113  and  _114
REMARK   48  A    between atoms: _120  and  _122
REMARK   49  A    between atoms: _122  and  _123
REMARK   50  A    between atoms: _122  and  _125
REMARK   51  A    between atoms: _125  and  _126
REMARK   52  A    between atoms: _136  and  _138
REMARK   53  A    between atoms: _138  and  _139
REMARK   54  A    between atoms: _138  and  _141
REMARK   55  A    between atoms: _141  and  _142
REMARK   56  A    between atoms: _147  and  _148
REMARK   57  A    between atoms: _150  and  _152
REMARK   58  A    between atoms: _152  and  _153
REMARK   59  A    between atoms: _152  and  _155
REMARK   60  A    between atoms: _155  and  _156
REMARK   61  A    between atoms: _161  and  _163
REMARK   62  A    between atoms: _163  and  _164
REMARK   63  A    between atoms: _163  and  _166
REMARK   64  A    between atoms: _166  and  _167
REMARK   65  A    between atoms: _167  and  _168
REMARK   66  A    between atoms: _173  and  _175
REMARK   67  A    between atoms: _175  and  _176
REMARK   68  A    between atoms: _175  and  _178
REMARK   69  A    between atoms: _178  and  _179
REMARK   70  A    between atoms: _182  and  _184
REMARK   71  A    between atoms: _184  and  _185
REMARK   72  A    between atoms: _184  and  _187
REMARK   73  A    between atoms: _190  and  _192
REMARK   74  A    between atoms: _192  and  _193
REMARK   75  A    between atoms: _192  and  _195
REMARK   76  A    between atoms: _195  and  _196
REMARK   77  A    between atoms: _199  and  _201
REMARK   78  A    between atoms: _201  and  _202
REMARK   79  A    between atoms: _205  and  _207
REMARK   80  A    between atoms: _207  and  _208
REMARK   81  A    between atoms: _210  and  _212
REMARK   82  A    between atoms: _212  and  _213
REMARK   83  A    between atoms: _212  and  _215
REMARK   84  A    between atoms: _217  and  _219
REMARK   85  A    between atoms: _219  and  _220
REMARK   86  A    between atoms: _222  and  _224
REMARK   87  A    between atoms: _224  and  _225
REMARK   88  A    between atoms: _224  and  _227
REMARK   89  A    between atoms: _230  and  _232
REMARK   90  A    between atoms: _232  and  _233
REMARK   91  A    between atoms: _235  and  _237
REMARK   92  A    between atoms: _237  and  _238
REMARK   93  A    between atoms: _237  and  _240
REMARK   94  A    between atoms: _240  and  _241
REMARK   95  A    between atoms: _243  and  _245
REMARK   96  A    between atoms: _245  and  _246
REMARK   97  A    between atoms: _245  and  _248
REMARK   98  A    between atoms: _248  and  _249
REMARK   99  A    between atoms: _252  and  _254
REMARK  100  A    between atoms: _254  and  _255
REMARK  101  A    between atoms: _254  and  _257
REMARK  102  A    between atoms: _257  and  _258
REMARK  103  A    between atoms: _260  and  _262
REMARK  104  A    between atoms: _262  and  _263
REMARK  105  A    between atoms: _262  and  _265
REMARK  106  A    between atoms: _265  and  _266
REMARK  107  A    between atoms: _268  and  _270
REMARK  108  A    between atoms: _270  and  _271
REMARK  109  A    between atoms: _270  and  _273
REMARK  110  A    between atoms: _273  and  _274
REMARK  111  A    between atoms: _277  and  _279
REMARK  112  A    between atoms: _279  and  _280
REMARK  113  A    between atoms: _279  and  _282
REMARK  114  A    between atoms: _282  and  _283
REMARK  115  A    between atoms: _286  and  _288
REMARK  116  A    between atoms: _288  and  _289
REMARK  117  A    between atoms: _288  and  _291
REMARK  118  A    between atoms: _291  and  _292
REMARK  119  A    between atoms: _294  and  _296
REMARK  120  A    between atoms: _296  and  _297
REMARK  121  A    between atoms: _296  and  _299
REMARK  122  A    between atoms: _299  and  _300
REMARK  123  A    between atoms: _300  and  _301
REMARK  124  A    between atoms: _304  and  _306
REMARK  125  A    between atoms: _306  and  _307
REMARK  126  A    between atoms: _306  and  _309
REMARK  127  A    between atoms: _309  and  _310
REMARK  128  A    between atoms: _310  and  _311
REMARK  129  A    between atoms: _311  and  _312
REMARK  130  A    between atoms: _312  and  _313
REMARK  131  A    between atoms: _317  and  _319
REMARK  132  A    between atoms: _319  and  _320
REMARK  133  A    between atoms: _319  and  _322
REMARK  134  A    between atoms: _322  and  _323
REMARK  135  A    between atoms: _323  and  _324
REMARK  136  A    between atoms: _326  and  _328
REMARK  137  A    between atoms: _328  and  _329
REMARK  138  A    between atoms: _328  and  _331
REMARK  139  A    between atoms: _334  and  _336
REMARK  140  A    between atoms: _336  and  _337
REMARK  141  A    between atoms: _336  and  _339
REMARK  142  A    between atoms: _339  and  _340
REMARK  143  A    between atoms: _340  and  _341
REMARK  144  A    between atoms: _343  and  _345
REMARK  145  A    between atoms: _345  and  _346
REMARK  146  A    between atoms: _345  and  _348
REMARK  147  A    between atoms: _348  and  _349
REMARK  148  A    between atoms: _352  and  _354
REMARK  149  A    between atoms: _354  and  _355
REMARK  150  A    between atoms: _354  and  _357
REMARK  151  A    between atoms: _357  and  _358
REMARK  152  A    between atoms: _358  and  _359
REMARK  153  A    between atoms: _364  and  _366
REMARK  154  A    between atoms: _366  and  _367
REMARK  155  A    between atoms: _366  and  _369
REMARK  156  A    between atoms: _369  and  _370
REMARK  157  A    between atoms: _373  and  _375
REMARK  158  A    between atoms: _375  and  _376
REMARK  159  A    between atoms: _375  and  _378
REMARK  160  A    between atoms: _378  and  _379
REMARK  161  A    between atoms: _382  and  _384
REMARK  162  A    between atoms: _384  and  _385
REMARK  163  A    between atoms: _388  and  _390
REMARK  164  A    between atoms: _390  and  _391
REMARK  165  A    between atoms: _390  and  _393
REMARK  166  A    between atoms: _393  and  _394
REMARK  167  A    between atoms: _394  and  _395
REMARK  168  A    between atoms: _400  and  _402
REMARK  169  A    between atoms: _402  and  _403
REMARK  170  A    between atoms: _402  and  _405
REMARK  171  A    between atoms: _405  and  _406
REMARK  172  A    between atoms: _409  and  _411
REMARK  173  A    between atoms: _411  and  _412
REMARK  174  A    between atoms: _411  and  _414
REMARK  175  A    between atoms: _414  and  _415
REMARK  176  A    between atoms: _418  and  _420
REMARK  177  A    between atoms: _420  and  _421
REMARK  178  A    between atoms: _420  and  _423
REMARK  179  A    between atoms: _425  and  _427
REMARK  180  A    between atoms: _427  and  _428
REMARK  181  A    between atoms: _427  and  _430
REMARK  182  A    between atoms: _430  and  _431
REMARK  183  A    between atoms: _434  and  _436
REMARK  184  A    between atoms: _436  and  _437
REMARK  185  A    between atoms: _436  and  _439
REMARK  186  A    between atoms: _439  and  _440
REMARK  187  A    between atoms: _443  and  _445
REMARK  188  A    between atoms: _445  and  _446
REMARK  189  A    between atoms: _445  and  _448
REMARK  190  A    between atoms: _451  and  _453
REMARK  191  A    between atoms: _453  and  _454
REMARK  192  A    between atoms: _453  and  _456
REMARK  193  A    between atoms: _456  and  _457
REMARK  194  A    between atoms: _460  and  _462
REMARK  195  A    between atoms: _462  and  _463
REMARK  196  A    between atoms: _462  and  _465
REMARK  197  A    between atoms: _465  and  _466
REMARK  198  A    between atoms: _469  and  _471
REMARK  199  A    between atoms: _471  and  _472
REMARK  200  A    between atoms: _471  and  _474
REMARK  201  A    between atoms: _474  and  _475
REMARK  202  A    between atoms: _480  and  _482
REMARK  203  A    between atoms: _482  and  _483
REMARK  204  A    between atoms: _482  and  _485
REMARK  205  A    between atoms: _485  and  _486
REMARK  206  A    between atoms: _491  and  _492
REMARK  207  A    between atoms: _494  and  _496
REMARK  208  A    between atoms: _496  and  _497
REMARK  209  A    between atoms: _496  and  _499
REMARK  210  A    between atoms: _499  and  _500
REMARK  211  A    between atoms: _500  and  _501
REMARK  212  A    between atoms: _503  and  _505
REMARK  213  A    between atoms: _505  and  _506
REMARK  214  A    between atoms: _505  and  _508
REMARK  215  A    between atoms: _508  and  _509
REMARK  216  A    between atoms: _512  and  _514
REMARK  217  A    between atoms: _514  and  _515
REMARK  218  A    between atoms: _514  and  _517
REMARK  219  A    between atoms: _517  and  _518
REMARK  220  A    between atoms: _520  and  _522
REMARK  221  A    between atoms: _522  and  _523
REMARK  222  A    between atoms: _522  and  _525
REMARK  223  A    between atoms: _525  and  _526
REMARK  224  A    between atoms: _531  and  _532
REMARK  225  A    between atoms: _534  and  _536
REMARK  226  A    between atoms: _536  and  _537
REMARK  227  A    between atoms: _536  and  _539
REMARK  228  A    between atoms: _539  and  _540
REMARK                            x       y       z     vdW  Elec       q    Type
REMARK                         _______ _______ _______ _____ _____    ______ ____
ROOT
ATOM      1  O   HOH     1      22.333  -2.275   0.220  0.00  0.00    +0.000 OA
ENDROOT
TORSDOF 0
REMARK  Name = ../refined-set-2016/4qdk/4qdk_pocket.pdb
REMARK  228 active torsions:
REMARK  status: ('A' for Active; 'I' for Inactive)
REMARK    1  A    between atoms: _1  and  _3
REMARK    2  A    between atoms: _3  and  _4
REMARK    3  A    between atoms: _3  and  _6
REMARK    4  A    between atoms: _6  and  _7
REMARK    5  A    between atoms: _10  and  _12
REMARK    6  A    between atoms: _12  and  _13
REMARK    7  A    between atoms: _12  and  _15
REMARK    8  A    between atoms: _15  and  _16
REMARK    9  A    between atoms: _16  and  _17
REMARK   10  A    between atoms: _17  and  _18
REMARK   11  A    between atoms: _18  and  _19
REMARK   12  A    between atoms: _23  and  _25
REMARK   13  A    between atoms: _25  and  _26
REMARK   14  A    between atoms: _25  and  _28
REMARK   15  A    between atoms: _28  and  _29
REMARK   16  A    between atoms: _32  and  _34
REMARK   17  A    between atoms: _34  and  _35
REMARK   18  A    between atoms: _34  and  _37
REMARK   19  A    between atoms: _40  and  _42
REMARK   20  A    between atoms: _42  and  _43
REMARK   21  A    between atoms: _42  and  _45
REMARK   22  A    between atoms: _45  and  _46
REMARK   23  A    between atoms: _46  and  _47
REMARK   24  A    between atoms: _47  and  _48
REMARK   25  A    between atoms: _57  and  _59
REMARK   26  A    between atoms: _59  and  _60
REMARK   27  A    between atoms: _59  and  _62
REMARK   28  A    between atoms: _62  and  _63
REMARK   29  A    between atoms: _66  and  _68
REMARK   30  A    between atoms: _68  and  _69
REMARK   31  A    between atoms: _68  and  _71
REMARK   32  A    between atoms: _71  and  _72
REMARK   33  A    between atoms: _77  and  _78
REMARK   34  A    between atoms: _80  and  _82
REMARK   35  A    between atoms: _82  and  _83
REMARK   36  A    between atoms: _82  and  _85
REMARK   37  A    between atoms: _85  and  _86
REMARK   38  A    between atoms: _92  and  _94
REMARK   39  A    between atoms: _94  and  _95
REMARK   40  A    between atoms: _94  and  _97
REMARK   41  A    between atoms: _97  and  _98
REMARK   42  A    between atoms: _103  and  _105
REMARK   43  A    between atoms: _105  and  _106
REMARK   44  A    between atoms: _108  and  _110
REMARK   45  A    between atoms: _110  and  _111
REMARK   46  A    between atoms: _110  and  _113
REMARK   47  A    between atoms: _113  and  _114
REMARK   48  A    between atoms: _120  and  _122
REMARK   49  A    between atoms: _122  and  _123
REMARK   50  A    between atoms: _122  and  _125
REMARK   51  A    between atoms: _125  and  _126
REMARK   52  A    between atoms: _136  and  _138
REMARK   53  A    between atoms: _138  and  _139
REMARK   54  A    between atoms: _138  and  _141
REMARK   55  A    between atoms: _141  and  _142
REMARK   56  A    between atoms: _147  and  _148
REMARK   57  A    between atoms: _150  and  _152
REMARK   58  A    between atoms: _152  and  _153
REMARK   59  A    between atoms: _152  and  _155
REMARK   60  A    between atoms: _155  and  _156
REMARK   61  A    between atoms: _161  and  _163
REMARK   62  A    between atoms: _163  and  _164
REMARK   63  A    between atoms: _163  and  _166
REMARK   64  A    between atoms: _166  and  _167
REMARK   65  A    between atoms: _167  and  _168
REMARK   66  A    between atoms: _173  and  _175
REMARK   67  A    between atoms: _175  and  _176
REMARK   68  A    between atoms: _175  and  _178
REMARK   69  A    between atoms: _178  and  _179
REMARK   70  A    between atoms: _182  and  _184
REMARK   71  A    between atoms: _184  and  _185
REMARK   72  A    between atoms: _184  and  _187
REMARK   73  A    between atoms: _190  and  _192
REMARK   74  A    between atoms: _192  and  _193
REMARK   75  A    between atoms: _192  and  _195
REMARK   76  A    between atoms: _195  and  _196
REMARK   77  A    between atoms: _199  and  _201
REMARK   78  A    between atoms: _201  and  _202
REMARK   79  A    between atoms: _205  and  _207
REMARK   80  A    between atoms: _207  and  _208
REMARK   81  A    between atoms: _210  and  _212
REMARK   82  A    between atoms: _212  and  _213
REMARK   83  A    between atoms: _212  and  _215
REMARK   84  A    between atoms: _217  and  _219
REMARK   85  A    between atoms: _219  and  _220
REMARK   86  A    between atoms: _222  and  _224
REMARK   87  A    between atoms: _224  and  _225
REMARK   88  A    between atoms: _224  and  _227
REMARK   89  A    between atoms: _230  and  _232
REMARK   90  A    between atoms: _232  and  _233
REMARK   91  A    between atoms: _235  and  _237
REMARK   92  A    between atoms: _237  and  _238
REMARK   93  A    between atoms: _237  and  _240
REMARK   94  A    between atoms: _240  and  _241
REMARK   95  A    between atoms: _243  and  _245
REMARK   96  A    between atoms: _245  and  _246
REMARK   97  A    between atoms: _245  and  _248
REMARK   98  A    between atoms: _248  and  _249
REMARK   99  A    between atoms: _252  and  _254
REMARK  100  A    between atoms: _254  and  _255
REMARK  101  A    between atoms: _254  and  _257
REMARK  102  A    between atoms: _257  and  _258
REMARK  103  A    between atoms: _260  and  _262
REMARK  104  A    between atoms: _262  and  _263
REMARK  105  A    between atoms: _262  and  _265
REMARK  106  A    between atoms: _265  and  _266
REMARK  107  A    between atoms: _268  and  _270
REMARK  108  A    between atoms: _270  and  _271
REMARK  109  A    between atoms: _270  and  _273
REMARK  110  A    between atoms: _273  and  _274
REMARK  111  A    between atoms: _277  and  _279
REMARK  112  A    between atoms: _279  and  _280
REMARK  113  A    between atoms: _279  and  _282
REMARK  114  A    between atoms: _282  and  _283
REMARK  115  A    between atoms: _286  and  _288
REMARK  116  A    between atoms: _288  and  _289
REMARK  117  A    between atoms: _288  and  _291
REMARK  118  A    between atoms: _291  and  _292
REMARK  119  A    between atoms: _294  and  _296
REMARK  120  A    between atoms: _296  and  _297
REMARK  121  A    between atoms: _296  and  _299
REMARK  122  A    between atoms: _299  and  _300
REMARK  123  A    between atoms: _300  and  _301
REMARK  124  A    between atoms: _304  and  _306
REMARK  125  A    between atoms: _306  and  _307
REMARK  126  A    between atoms: _306  and  _309
REMARK  127  A    between atoms: _309  and  _310
REMARK  128  A    between atoms: _310  and  _311
REMARK  129  A    between atoms: _311  and  _312
REMARK  130  A    between atoms: _312  and  _313
REMARK  131  A    between atoms: _317  and  _319
REMARK  132  A    between atoms: _319  and  _320
REMARK  133  A    between atoms: _319  and  _322
REMARK  134  A    between atoms: _322  and  _323
REMARK  135  A    between atoms: _323  and  _324
REMARK  136  A    between atoms: _326  and  _328
REMARK  137  A    between atoms: _328  and  _329
REMARK  138  A    between atoms: _328  and  _331
REMARK  139  A    between atoms: _334  and  _336
REMARK  140  A    between atoms: _336  and  _337
REMARK  141  A    between atoms: _336  and  _339
REMARK  142  A    between atoms: _339  and  _340
REMARK  143  A    between atoms: _340  and  _341
REMARK  144  A    between atoms: _343  and  _345
REMARK  145  A    between atoms: _345  and  _346
REMARK  146  A    between atoms: _345  and  _348
REMARK  147  A    between atoms: _348  and  _349
REMARK  148  A    between atoms: _352  and  _354
REMARK  149  A    between atoms: _354  and  _355
REMARK  150  A    between atoms: _354  and  _357
REMARK  151  A    between atoms: _357  and  _358
REMARK  152  A    between atoms: _358  and  _359
REMARK  153  A    between atoms: _364  and  _366
REMARK  154  A    between atoms: _366  and  _367
REMARK  155  A    between atoms: _366  and  _369
REMARK  156  A    between atoms: _369  and  _370
REMARK  157  A    between atoms: _373  and  _375
REMARK  158  A    between atoms: _375  and  _376
REMARK  159  A    between atoms: _375  and  _378
REMARK  160  A    between atoms: _378  and  _379
REMARK  161  A    between atoms: _382  and  _384
REMARK  162  A    between atoms: _384  and  _385
REMARK  163  A    between atoms: _388  and  _390
REMARK  164  A    between atoms: _390  and  _391
REMARK  165  A    between atoms: _390  and  _393
REMARK  166  A    between atoms: _393  and  _394
REMARK  167  A    between atoms: _394  and  _395
REMARK  168  A    between atoms: _400  and  _402
REMARK  169  A    between atoms: _402  and  _403
REMARK  170  A    between atoms: _402  and  _405
REMARK  171  A    between atoms: _405  and  _406
REMARK  172  A    between atoms: _409  and  _411
REMARK  173  A    between atoms: _411  and  _412
REMARK  174  A    between atoms: _411  and  _414
REMARK  175  A    between atoms: _414  and  _415
REMARK  176  A    between atoms: _418  and  _420
REMARK  177  A    between atoms: _420  and  _421
REMARK  178  A    between atoms: _420  and  _423
REMARK  179  A    between atoms: _425  and  _427
REMARK  180  A    between atoms: _427  and  _428
REMARK  181  A    between atoms: _427  and  _430
REMARK  182  A    between atoms: _430  and  _431
REMARK  183  A    between atoms: _434  and  _436
REMARK  184  A    between atoms: _436  and  _437
REMARK  185  A    between atoms: _436  and  _439
REMARK  186  A    between atoms: _439  and  _440
REMARK  187  A    between atoms: _443  and  _445
REMARK  188  A    between atoms: _445  and  _446
REMARK  189  A    between atoms: _445  and  _448
REMARK  190  A    between atoms: _451  and  _453
REMARK  191  A    between atoms: _453  and  _454
REMARK  192  A    between atoms: _453  and  _456
REMARK  193  A    between atoms: _456  and  _457
REMARK  194  A    between atoms: _460  and  _462
REMARK  195  A    between atoms: _462  and  _463
REMARK  196  A    between atoms: _462  and  _465
REMARK  197  A    between atoms: _465  and  _466
REMARK  198  A    between atoms: _469  and  _471
REMARK  199  A    between atoms: _471  and  _472
REMARK  200  A    between atoms: _471  and  _474
REMARK  201  A    between atoms: _474  and  _475
REMARK  202  A    between atoms: _480  and  _482
REMARK  203  A    between atoms: _482  and  _483
REMARK  204  A    between atoms: _482  and  _485
REMARK  205  A    between atoms: _485  and  _486
REMARK  206  A    between atoms: _491  and  _492
REMARK  207  A    between atoms: _494  and  _496
REMARK  208  A    between atoms: _496  and  _497
REMARK  209  A    between atoms: _496  and  _499
REMARK  210  A    between atoms: _499  and  _500
REMARK  211  A    between atoms: _500  and  _501
REMARK  212  A    between atoms: _503  and  _505
REMARK  213  A    between atoms: _505  and  _506
REMARK  214  A    between atoms: _505  and  _508
REMARK  215  A    between atoms: _508  and  _509
REMARK  216  A    between atoms: _512  and  _514
REMARK  217  A    between atoms: _514  and  _515
REMARK  218  A    between atoms: _514  and  _517
REMARK  219  A    between atoms: _517  and  _518
REMARK  220  A    between atoms: _520  and  _522
REMARK  221  A    between atoms: _522  and  _523
REMARK  222  A    between atoms: _522  and  _525
REMARK  223  A    between atoms: _525  and  _526
REMARK  224  A    between atoms: _531  and  _532
REMARK  225  A    between atoms: _534  and  _536
REMARK  226  A    between atoms: _536  and  _537
REMARK  227  A    between atoms: _536  and  _539
REMARK  228  A    between atoms: _539  and  _540
REMARK                            x       y       z     vdW  Elec       q    Type
REMARK                         _______ _______ _______ _____ _____    ______ ____
ROOT
ATOM      1  O   HOH     1      19.536   8.599  18.190  0.00  0.00    +0.000 OA
ENDROOT
TORSDOF 0
REMARK  Name = ../refined-set-2016/4qdk/4qdk_pocket.pdb
REMARK  228 active torsions:
REMARK  status: ('A' for Active; 'I' for Inactive)
REMARK    1  A    between atoms: _1  and  _3
REMARK    2  A    between atoms: _3  and  _4
REMARK    3  A    between atoms: _3  and  _6
REMARK    4  A    between atoms: _6  and  _7
REMARK    5  A    between atoms: _10  and  _12
REMARK    6  A    between atoms: _12  and  _13
REMARK    7  A    between atoms: _12  and  _15
REMARK    8  A    between atoms: _15  and  _16
REMARK    9  A    between atoms: _16  and  _17
REMARK   10  A    between atoms: _17  and  _18
REMARK   11  A    between atoms: _18  and  _19
REMARK   12  A    between atoms: _23  and  _25
REMARK   13  A    between atoms: _25  and  _26
REMARK   14  A    between atoms: _25  and  _28
REMARK   15  A    between atoms: _28  and  _29
REMARK   16  A    between atoms: _32  and  _34
REMARK   17  A    between atoms: _34  and  _35
REMARK   18  A    between atoms: _34  and  _37
REMARK   19  A    between atoms: _40  and  _42
REMARK   20  A    between atoms: _42  and  _43
REMARK   21  A    between atoms: _42  and  _45
REMARK   22  A    between atoms: _45  and  _46
REMARK   23  A    between atoms: _46  and  _47
REMARK   24  A    between atoms: _47  and  _48
REMARK   25  A    between atoms: _57  and  _59
REMARK   26  A    between atoms: _59  and  _60
REMARK   27  A    between atoms: _59  and  _62
REMARK   28  A    between atoms: _62  and  _63
REMARK   29  A    between atoms: _66  and  _68
REMARK   30  A    between atoms: _68  and  _69
REMARK   31  A    between atoms: _68  and  _71
REMARK   32  A    between atoms: _71  and  _72
REMARK   33  A    between atoms: _77  and  _78
REMARK   34  A    between atoms: _80  and  _82
REMARK   35  A    between atoms: _82  and  _83
REMARK   36  A    between atoms: _82  and  _85
REMARK   37  A    between atoms: _85  and  _86
REMARK   38  A    between atoms: _92  and  _94
REMARK   39  A    between atoms: _94  and  _95
REMARK   40  A    between atoms: _94  and  _97
REMARK   41  A    between atoms: _97  and  _98
REMARK   42  A    between atoms: _103  and  _105
REMARK   43  A    between atoms: _105  and  _106
REMARK   44  A    between atoms: _108  and  _110
REMARK   45  A    between atoms: _110  and  _111
REMARK   46  A    between atoms: _110  and  _113
REMARK   47  A    between atoms: _113  and  _114
REMARK   48  A    between atoms: _120  and  _122
REMARK   49  A    between atoms: _122  and  _123
REMARK   50  A    between atoms: _122  and  _125
REMARK   51  A    between atoms: _125  and  _126
REMARK   52  A    between atoms: _136  and  _138
REMARK   53  A    between atoms: _138  and  _139
REMARK   54  A    between atoms: _138  and  _141
REMARK   55  A    between atoms: _141  and  _142
REMARK   56  A    between atoms: _147  and  _148
REMARK   57  A    between atoms: _150  and  _152
REMARK   58  A    between atoms: _152  and  _153
REMARK   59  A    between atoms: _152  and  _155
REMARK   60  A    between atoms: _155  and  _156
REMARK   61  A    between atoms: _161  and  _163
REMARK   62  A    between atoms: _163  and  _164
REMARK   63  A    between atoms: _163  and  _166
REMARK   64  A    between atoms: _166  and  _167
REMARK   65  A    between atoms: _167  and  _168
REMARK   66  A    between atoms: _173  and  _175
REMARK   67  A    between atoms: _175  and  _176
REMARK   68  A    between atoms: _175  and  _178
REMARK   69  A    between atoms: _178  and  _179
REMARK   70  A    between atoms: _182  and  _184
REMARK   71  A    between atoms: _184  and  _185
REMARK   72  A    between atoms: _184  and  _187
REMARK   73  A    between atoms: _190  and  _192
REMARK   74  A    between atoms: _192  and  _193
REMARK   75  A    between atoms: _192  and  _195
REMARK   76  A    between atoms: _195  and  _196
REMARK   77  A    between atoms: _199  and  _201
REMARK   78  A    between atoms: _201  and  _202
REMARK   79  A    between atoms: _205  and  _207
REMARK   80  A    between atoms: _207  and  _208
REMARK   81  A    between atoms: _210  and  _212
REMARK   82  A    between atoms: _212  and  _213
REMARK   83  A    between atoms: _212  and  _215
REMARK   84  A    between atoms: _217  and  _219
REMARK   85  A    between atoms: _219  and  _220
REMARK   86  A    between atoms: _222  and  _224
REMARK   87  A    between atoms: _224  and  _225
REMARK   88  A    between atoms: _224  and  _227
REMARK   89  A    between atoms: _230  and  _232
REMARK   90  A    between atoms: _232  and  _233
REMARK   91  A    between atoms: _235  and  _237
REMARK   92  A    between atoms: _237  and  _238
REMARK   93  A    between atoms: _237  and  _240
REMARK   94  A    between atoms: _240  and  _241
REMARK   95  A    between atoms: _243  and  _245
REMARK   96  A    between atoms: _245  and  _246
REMARK   97  A    between atoms: _245  and  _248
REMARK   98  A    between atoms: _248  and  _249
REMARK   99  A    between atoms: _252  and  _254
REMARK  100  A    between atoms: _254  and  _255
REMARK  101  A    between atoms: _254  and  _257
REMARK  102  A    between atoms: _257  and  _258
REMARK  103  A    between atoms: _260  and  _262
REMARK  104  A    between atoms: _262  and  _263
REMARK  105  A    between atoms: _262  and  _265
REMARK  106  A    between atoms: _265  and  _266
REMARK  107  A    between atoms: _268  and  _270
REMARK  108  A    between atoms: _270  and  _271
REMARK  109  A    between atoms: _270  and  _273
REMARK  110  A    between atoms: _273  and  _274
REMARK  111  A    between atoms: _277  and  _279
REMARK  112  A    between atoms: _279  and  _280
REMARK  113  A    between atoms: _279  and  _282
REMARK  114  A    between atoms: _282  and  _283
REMARK  115  A    between atoms: _286  and  _288
REMARK  116  A    between atoms: _288  and  _289
REMARK  117  A    between atoms: _288  and  _291
REMARK  118  A    between atoms: _291  and  _292
REMARK  119  A    between atoms: _294  and  _296
REMARK  120  A    between atoms: _296  and  _297
REMARK  121  A    between atoms: _296  and  _299
REMARK  122  A    between atoms: _299  and  _300
REMARK  123  A    between atoms: _300  and  _301
REMARK  124  A    between atoms: _304  and  _306
REMARK  125  A    between atoms: _306  and  _307
REMARK  126  A    between atoms: _306  and  _309
REMARK  127  A    between atoms: _309  and  _310
REMARK  128  A    between atoms: _310  and  _311
REMARK  129  A    between atoms: _311  and  _312
REMARK  130  A    between atoms: _312  and  _313
REMARK  131  A    between atoms: _317  and  _319
REMARK  132  A    between atoms: _319  and  _320
REMARK  133  A    between atoms: _319  and  _322
REMARK  134  A    between atoms: _322  and  _323
REMARK  135  A    between atoms: _323  and  _324
REMARK  136  A    between atoms: _326  and  _328
REMARK  137  A    between atoms: _328  and  _329
REMARK  138  A    between atoms: _328  and  _331
REMARK  139  A    between atoms: _334  and  _336
REMARK  140  A    between atoms: _336  and  _337
REMARK  141  A    between atoms: _336  and  _339
REMARK  142  A    between atoms: _339  and  _340
REMARK  143  A    between atoms: _340  and  _341
REMARK  144  A    between atoms: _343  and  _345
REMARK  145  A    between atoms: _345  and  _346
REMARK  146  A    between atoms: _345  and  _348
REMARK  147  A    between atoms: _348  and  _349
REMARK  148  A    between atoms: _352  and  _354
REMARK  149  A    between atoms: _354  and  _355
REMARK  150  A    between atoms: _354  and  _357
REMARK  151  A    between atoms: _357  and  _358
REMARK  152  A    between atoms: _358  and  _359
REMARK  153  A    between atoms: _364  and  _366
REMARK  154  A    between atoms: _366  and  _367
REMARK  155  A    between atoms: _366  and  _369
REMARK  156  A    between atoms: _369  and  _370
REMARK  157  A    between atoms: _373  and  _375
REMARK  158  A    between atoms: _375  and  _376
REMARK  159  A    between atoms: _375  and  _378
REMARK  160  A    between atoms: _378  and  _379
REMARK  161  A    between atoms: _382  and  _384
REMARK  162  A    between atoms: _384  and  _385
REMARK  163  A    between atoms: _388  and  _390
REMARK  164  A    between atoms: _390  and  _391
REMARK  165  A    between atoms: _390  and  _393
REMARK  166  A    between atoms: _393  and  _394
REMARK  167  A    between atoms: _394  and  _395
REMARK  168  A    between atoms: _400  and  _402
REMARK  169  A    between atoms: _402  and  _403
REMARK  170  A    between atoms: _402  and  _405
REMARK  171  A    between atoms: _405  and  _406
REMARK  172  A    between atoms: _409  and  _411
REMARK  173  A    between atoms: _411  and  _412
REMARK  174  A    between atoms: _411  and  _414
REMARK  175  A    between atoms: _414  and  _415
REMARK  176  A    between atoms: _418  and  _420
REMARK  177  A    between atoms: _420  and  _421
REMARK  178  A    between atoms: _420  and  _423
REMARK  179  A    between atoms: _425  and  _427
REMARK  180  A    between atoms: _427  and  _428
REMARK  181  A    between atoms: _427  and  _430
REMARK  182  A    between atoms: _430  and  _431
REMARK  183  A    between atoms: _434  and  _436
REMARK  184  A    between atoms: _436  and  _437
REMARK  185  A    between atoms: _436  and  _439
REMARK  186  A    between atoms: _439  and  _440
REMARK  187  A    between atoms: _443  and  _445
REMARK  188  A    between atoms: _445  and  _446
REMARK  189  A    between atoms: _445  and  _448
REMARK  190  A    between atoms: _451  and  _453
REMARK  191  A    between atoms: _453  and  _454
REMARK  192  A    between atoms: _453  and  _456
REMARK  193  A    between atoms: _456  and  _457
REMARK  194  A    between atoms: _460  and  _462
REMARK  195  A    between atoms: _462  and  _463
REMARK  196  A    between atoms: _462  and  _465
REMARK  197  A    between atoms: _465  and  _466
REMARK  198  A    between atoms: _469  and  _471
REMARK  199  A    between atoms: _471  and  _472
REMARK  200  A    between atoms: _471  and  _474
REMARK  201  A    between atoms: _474  and  _475
REMARK  202  A    between atoms: _480  and  _482
REMARK  203  A    between atoms: _482  and  _483
REMARK  204  A    between atoms: _482  and  _485
REMARK  205  A    between atoms: _485  and  _486
REMARK  206  A    between atoms: _491  and  _492
REMARK  207  A    between atoms: _494  and  _496
REMARK  208  A    between atoms: _496  and  _497
REMARK  209  A    between atoms: _496  and  _499
REMARK  210  A    between atoms: _499  and  _500
REMARK  211  A    between atoms: _500  and  _501
REMARK  212  A    between atoms: _503  and  _505
REMARK  213  A    between atoms: _505  and  _506
REMARK  214  A    between atoms: _505  and  _508
REMARK  215  A    between atoms: _508  and  _509
REMARK  216  A    between atoms: _512  and  _514
REMARK  217  A    between atoms: _514  and  _515
REMARK  218  A    between atoms: _514  and  _517
REMARK  219  A    between atoms: _517  and  _518
REMARK  220  A    between atoms: _520  and  _522
REMARK  221  A    between atoms: _522  and  _523
REMARK  222  A    between atoms: _522  and  _525
REMARK  223  A    between atoms: _525  and  _526
REMARK  224  A    between atoms: _531  and  _532
REMARK  225  A    between atoms: _534  and  _536
REMARK  226  A    between atoms: _536  and  _537
REMARK  227  A    between atoms: _536  and  _539
REMARK  228  A    between atoms: _539  and  _540
REMARK                            x       y       z     vdW  Elec       q    Type
REMARK                         _______ _______ _______ _____ _____    ______ ____
ROOT
ATOM      1  O   HOH     1      13.500   4.461  15.853  0.00  0.00    +0.000 OA
ENDROOT
TORSDOF 0
REMARK  Name = ../refined-set-2016/4qdk/4qdk_pocket.pdb
REMARK  228 active torsions:
REMARK  status: ('A' for Active; 'I' for Inactive)
REMARK    1  A    between atoms: _1  and  _3
REMARK    2  A    between atoms: _3  and  _4
REMARK    3  A    between atoms: _3  and  _6
REMARK    4  A    between atoms: _6  and  _7
REMARK    5  A    between atoms: _10  and  _12
REMARK    6  A    between atoms: _12  and  _13
REMARK    7  A    between atoms: _12  and  _15
REMARK    8  A    between atoms: _15  and  _16
REMARK    9  A    between atoms: _16  and  _17
REMARK   10  A    between atoms: _17  and  _18
REMARK   11  A    between atoms: _18  and  _19
REMARK   12  A    between atoms: _23  and  _25
REMARK   13  A    between atoms: _25  and  _26
REMARK   14  A    between atoms: _25  and  _28
REMARK   15  A    between atoms: _28  and  _29
REMARK   16  A    between atoms: _32  and  _34
REMARK   17  A    between atoms: _34  and  _35
REMARK   18  A    between atoms: _34  and  _37
REMARK   19  A    between atoms: _40  and  _42
REMARK   20  A    between atoms: _42  and  _43
REMARK   21  A    between atoms: _42  and  _45
REMARK   22  A    between atoms: _45  and  _46
REMARK   23  A    between atoms: _46  and  _47
REMARK   24  A    between atoms: _47  and  _48
REMARK   25  A    between atoms: _57  and  _59
REMARK   26  A    between atoms: _59  and  _60
REMARK   27  A    between atoms: _59  and  _62
REMARK   28  A    between atoms: _62  and  _63
REMARK   29  A    between atoms: _66  and  _68
REMARK   30  A    between atoms: _68  and  _69
REMARK   31  A    between atoms: _68  and  _71
REMARK   32  A    between atoms: _71  and  _72
REMARK   33  A    between atoms: _77  and  _78
REMARK   34  A    between atoms: _80  and  _82
REMARK   35  A    between atoms: _82  and  _83
REMARK   36  A    between atoms: _82  and  _85
REMARK   37  A    between atoms: _85  and  _86
REMARK   38  A    between atoms: _92  and  _94
REMARK   39  A    between atoms: _94  and  _95
REMARK   40  A    between atoms: _94  and  _97
REMARK   41  A    between atoms: _97  and  _98
REMARK   42  A    between atoms: _103  and  _105
REMARK   43  A    between atoms: _105  and  _106
REMARK   44  A    between atoms: _108  and  _110
REMARK   45  A    between atoms: _110  and  _111
REMARK   46  A    between atoms: _110  and  _113
REMARK   47  A    between atoms: _113  and  _114
REMARK   48  A    between atoms: _120  and  _122
REMARK   49  A    between atoms: _122  and  _123
REMARK   50  A    between atoms: _122  and  _125
REMARK   51  A    between atoms: _125  and  _126
REMARK   52  A    between atoms: _136  and  _138
REMARK   53  A    between atoms: _138  and  _139
REMARK   54  A    between atoms: _138  and  _141
REMARK   55  A    between atoms: _141  and  _142
REMARK   56  A    between atoms: _147  and  _148
REMARK   57  A    between atoms: _150  and  _152
REMARK   58  A    between atoms: _152  and  _153
REMARK   59  A    between atoms: _152  and  _155
REMARK   60  A    between atoms: _155  and  _156
REMARK   61  A    between atoms: _161  and  _163
REMARK   62  A    between atoms: _163  and  _164
REMARK   63  A    between atoms: _163  and  _166
REMARK   64  A    between atoms: _166  and  _167
REMARK   65  A    between atoms: _167  and  _168
REMARK   66  A    between atoms: _173  and  _175
REMARK   67  A    between atoms: _175  and  _176
REMARK   68  A    between atoms: _175  and  _178
REMARK   69  A    between atoms: _178  and  _179
REMARK   70  A    between atoms: _182  and  _184
REMARK   71  A    between atoms: _184  and  _185
REMARK   72  A    between atoms: _184  and  _187
REMARK   73  A    between atoms: _190  and  _192
REMARK   74  A    between atoms: _192  and  _193
REMARK   75  A    between atoms: _192  and  _195
REMARK   76  A    between atoms: _195  and  _196
REMARK   77  A    between atoms: _199  and  _201
REMARK   78  A    between atoms: _201  and  _202
REMARK   79  A    between atoms: _205  and  _207
REMARK   80  A    between atoms: _207  and  _208
REMARK   81  A    between atoms: _210  and  _212
REMARK   82  A    between atoms: _212  and  _213
REMARK   83  A    between atoms: _212  and  _215
REMARK   84  A    between atoms: _217  and  _219
REMARK   85  A    between atoms: _219  and  _220
REMARK   86  A    between atoms: _222  and  _224
REMARK   87  A    between atoms: _224  and  _225
REMARK   88  A    between atoms: _224  and  _227
REMARK   89  A    between atoms: _230  and  _232
REMARK   90  A    between atoms: _232  and  _233
REMARK   91  A    between atoms: _235  and  _237
REMARK   92  A    between atoms: _237  and  _238
REMARK   93  A    between atoms: _237  and  _240
REMARK   94  A    between atoms: _240  and  _241
REMARK   95  A    between atoms: _243  and  _245
REMARK   96  A    between atoms: _245  and  _246
REMARK   97  A    between atoms: _245  and  _248
REMARK   98  A    between atoms: _248  and  _249
REMARK   99  A    between atoms: _252  and  _254
REMARK  100  A    between atoms: _254  and  _255
REMARK  101  A    between atoms: _254  and  _257
REMARK  102  A    between atoms: _257  and  _258
REMARK  103  A    between atoms: _260  and  _262
REMARK  104  A    between atoms: _262  and  _263
REMARK  105  A    between atoms: _262  and  _265
REMARK  106  A    between atoms: _265  and  _266
REMARK  107  A    between atoms: _268  and  _270
REMARK  108  A    between atoms: _270  and  _271
REMARK  109  A    between atoms: _270  and  _273
REMARK  110  A    between atoms: _273  and  _274
REMARK  111  A    between atoms: _277  and  _279
REMARK  112  A    between atoms: _279  and  _280
REMARK  113  A    between atoms: _279  and  _282
REMARK  114  A    between atoms: _282  and  _283
REMARK  115  A    between atoms: _286  and  _288
REMARK  116  A    between atoms: _288  and  _289
REMARK  117  A    between atoms: _288  and  _291
REMARK  118  A    between atoms: _291  and  _292
REMARK  119  A    between atoms: _294  and  _296
REMARK  120  A    between atoms: _296  and  _297
REMARK  121  A    between atoms: _296  and  _299
REMARK  122  A    between atoms: _299  and  _300
REMARK  123  A    between atoms: _300  and  _301
REMARK  124  A    between atoms: _304  and  _306
REMARK  125  A    between atoms: _306  and  _307
REMARK  126  A    between atoms: _306  and  _309
REMARK  127  A    between atoms: _309  and  _310
REMARK  128  A    between atoms: _310  and  _311
REMARK  129  A    between atoms: _311  and  _312
REMARK  130  A    between atoms: _312  and  _313
REMARK  131  A    between atoms: _317  and  _319
REMARK  132  A    between atoms: _319  and  _320
REMARK  133  A    between atoms: _319  and  _322
REMARK  134  A    between atoms: _322  and  _323
REMARK  135  A    between atoms: _323  and  _324
REMARK  136  A    between atoms: _326  and  _328
REMARK  137  A    between atoms: _328  and  _329
REMARK  138  A    between atoms: _328  and  _331
REMARK  139  A    between atoms: _334  and  _336
REMARK  140  A    between atoms: _336  and  _337
REMARK  141  A    between atoms: _336  and  _339
REMARK  142  A    between atoms: _339  and  _340
REMARK  143  A    between atoms: _340  and  _341
REMARK  144  A    between atoms: _343  and  _345
REMARK  145  A    between atoms: _345  and  _346
REMARK  146  A    between atoms: _345  and  _348
REMARK  147  A    between atoms: _348  and  _349
REMARK  148  A    between atoms: _352  and  _354
REMARK  149  A    between atoms: _354  and  _355
REMARK  150  A    between atoms: _354  and  _357
REMARK  151  A    between atoms: _357  and  _358
REMARK  152  A    between atoms: _358  and  _359
REMARK  153  A    between atoms: _364  and  _366
REMARK  154  A    between atoms: _366  and  _367
REMARK  155  A    between atoms: _366  and  _369
REMARK  156  A    between atoms: _369  and  _370
REMARK  157  A    between atoms: _373  and  _375
REMARK  158  A    between atoms: _375  and  _376
REMARK  159  A    between atoms: _375  and  _378
REMARK  160  A    between atoms: _378  and  _379
REMARK  161  A    between atoms: _382  and  _384
REMARK  162  A    between atoms: _384  and  _385
REMARK  163  A    between atoms: _388  and  _390
REMARK  164  A    between atoms: _390  and  _391
REMARK  165  A    between atoms: _390  and  _393
REMARK  166  A    between atoms: _393  and  _394
REMARK  167  A    between atoms: _394  and  _395
REMARK  168  A    between atoms: _400  and  _402
REMARK  169  A    between atoms: _402  and  _403
REMARK  170  A    between atoms: _402  and  _405
REMARK  171  A    between atoms: _405  and  _406
REMARK  172  A    between atoms: _409  and  _411
REMARK  173  A    between atoms: _411  and  _412
REMARK  174  A    between atoms: _411  and  _414
REMARK  175  A    between atoms: _414  and  _415
REMARK  176  A    between atoms: _418  and  _420
REMARK  177  A    between atoms: _420  and  _421
REMARK  178  A    between atoms: _420  and  _423
REMARK  179  A    between atoms: _425  and  _427
REMARK  180  A    between atoms: _427  and  _428
REMARK  181  A    between atoms: _427  and  _430
REMARK  182  A    between atoms: _430  and  _431
REMARK  183  A    between atoms: _434  and  _436
REMARK  184  A    between atoms: _436  and  _437
REMARK  185  A    between atoms: _436  and  _439
REMARK  186  A    between atoms: _439  and  _440
REMARK  187  A    between atoms: _443  and  _445
REMARK  188  A    between atoms: _445  and  _446
REMARK  189  A    between atoms: _445  and  _448
REMARK  190  A    between atoms: _451  and  _453
REMARK  191  A    between atoms: _453  and  _454
REMARK  192  A    between atoms: _453  and  _456
REMARK  193  A    between atoms: _456  and  _457
REMARK  194  A    between atoms: _460  and  _462
REMARK  195  A    between atoms: _462  and  _463
REMARK  196  A    between atoms: _462  and  _465
REMARK  197  A    between atoms: _465  and  _466
REMARK  198  A    between atoms: _469  and  _471
REMARK  199  A    between atoms: _471  and  _472
REMARK  200  A    between atoms: _471  and  _474
REMARK  201  A    between atoms: _474  and  _475
REMARK  202  A    between atoms: _480  and  _482
REMARK  203  A    between atoms: _482  and  _483
REMARK  204  A    between atoms: _482  and  _485
REMARK  205  A    between atoms: _485  and  _486
REMARK  206  A    between atoms: _491  and  _492
REMARK  207  A    between atoms: _494  and  _496
REMARK  208  A    between atoms: _496  and  _497
REMARK  209  A    between atoms: _496  and  _499
REMARK  210  A    between atoms: _499  and  _500
REMARK  211  A    between atoms: _500  and  _501
REMARK  212  A    between atoms: _503  and  _505
REMARK  213  A    between atoms: _505  and  _506
REMARK  214  A    between atoms: _505  and  _508
REMARK  215  A    between atoms: _508  and  _509
REMARK  216  A    between atoms: _512  and  _514
REMARK  217  A    between atoms: _514  and  _515
REMARK  218  A    between atoms: _514  and  _517
REMARK  219  A    between atoms: _517  and  _518
REMARK  220  A    between atoms: _520  and  _522
REMARK  221  A    between atoms: _522  and  _523
REMARK  222  A    between atoms: _522  and  _525
REMARK  223  A    between atoms: _525  and  _526
REMARK  224  A    between atoms: _531  and  _532
REMARK  225  A    between atoms: _534  and  _536
REMARK  226  A    between atoms: _536  and  _537
REMARK  227  A    between atoms: _536  and  _539
REMARK  228  A    between atoms: _539  and  _540
REMARK                            x       y       z     vdW  Elec       q    Type
REMARK                         _______ _______ _______ _____ _____    ______ ____
ROOT
ATOM      1  O   HOH     1      17.983   8.217  14.224  0.00  0.00    +0.000 OA
ENDROOT
TORSDOF 0
REMARK  Name = ../refined-set-2016/4qdk/4qdk_pocket.pdb
REMARK  228 active torsions:
REMARK  status: ('A' for Active; 'I' for Inactive)
REMARK    1  A    between atoms: _1  and  _3
REMARK    2  A    between atoms: _3  and  _4
REMARK    3  A    between atoms: _3  and  _6
REMARK    4  A    between atoms: _6  and  _7
REMARK    5  A    between atoms: _10  and  _12
REMARK    6  A    between atoms: _12  and  _13
REMARK    7  A    between atoms: _12  and  _15
REMARK    8  A    between atoms: _15  and  _16
REMARK    9  A    between atoms: _16  and  _17
REMARK   10  A    between atoms: _17  and  _18
REMARK   11  A    between atoms: _18  and  _19
REMARK   12  A    between atoms: _23  and  _25
REMARK   13  A    between atoms: _25  and  _26
REMARK   14  A    between atoms: _25  and  _28
REMARK   15  A    between atoms: _28  and  _29
REMARK   16  A    between atoms: _32  and  _34
REMARK   17  A    between atoms: _34  and  _35
REMARK   18  A    between atoms: _34  and  _37
REMARK   19  A    between atoms: _40  and  _42
REMARK   20  A    between atoms: _42  and  _43
REMARK   21  A    between atoms: _42  and  _45
REMARK   22  A    between atoms: _45  and  _46
REMARK   23  A    between atoms: _46  and  _47
REMARK   24  A    between atoms: _47  and  _48
REMARK   25  A    between atoms: _57  and  _59
REMARK   26  A    between atoms: _59  and  _60
REMARK   27  A    between atoms: _59  and  _62
REMARK   28  A    between atoms: _62  and  _63
REMARK   29  A    between atoms: _66  and  _68
REMARK   30  A    between atoms: _68  and  _69
REMARK   31  A    between atoms: _68  and  _71
REMARK   32  A    between atoms: _71  and  _72
REMARK   33  A    between atoms: _77  and  _78
REMARK   34  A    between atoms: _80  and  _82
REMARK   35  A    between atoms: _82  and  _83
REMARK   36  A    between atoms: _82  and  _85
REMARK   37  A    between atoms: _85  and  _86
REMARK   38  A    between atoms: _92  and  _94
REMARK   39  A    between atoms: _94  and  _95
REMARK   40  A    between atoms: _94  and  _97
REMARK   41  A    between atoms: _97  and  _98
REMARK   42  A    between atoms: _103  and  _105
REMARK   43  A    between atoms: _105  and  _106
REMARK   44  A    between atoms: _108  and  _110
REMARK   45  A    between atoms: _110  and  _111
REMARK   46  A    between atoms: _110  and  _113
REMARK   47  A    between atoms: _113  and  _114
REMARK   48  A    between atoms: _120  and  _122
REMARK   49  A    between atoms: _122  and  _123
REMARK   50  A    between atoms: _122  and  _125
REMARK   51  A    between atoms: _125  and  _126
REMARK   52  A    between atoms: _136  and  _138
REMARK   53  A    between atoms: _138  and  _139
REMARK   54  A    between atoms: _138  and  _141
REMARK   55  A    between atoms: _141  and  _142
REMARK   56  A    between atoms: _147  and  _148
REMARK   57  A    between atoms: _150  and  _152
REMARK   58  A    between atoms: _152  and  _153
REMARK   59  A    between atoms: _152  and  _155
REMARK   60  A    between atoms: _155  and  _156
REMARK   61  A    between atoms: _161  and  _163
REMARK   62  A    between atoms: _163  and  _164
REMARK   63  A    between atoms: _163  and  _166
REMARK   64  A    between atoms: _166  and  _167
REMARK   65  A    between atoms: _167  and  _168
REMARK   66  A    between atoms: _173  and  _175
REMARK   67  A    between atoms: _175  and  _176
REMARK   68  A    between atoms: _175  and  _178
REMARK   69  A    between atoms: _178  and  _179
REMARK   70  A    between atoms: _182  and  _184
REMARK   71  A    between atoms: _184  and  _185
REMARK   72  A    between atoms: _184  and  _187
REMARK   73  A    between atoms: _190  and  _192
REMARK   74  A    between atoms: _192  and  _193
REMARK   75  A    between atoms: _192  and  _195
REMARK   76  A    between atoms: _195  and  _196
REMARK   77  A    between atoms: _199  and  _201
REMARK   78  A    between atoms: _201  and  _202
REMARK   79  A    between atoms: _205  and  _207
REMARK   80  A    between atoms: _207  and  _208
REMARK   81  A    between atoms: _210  and  _212
REMARK   82  A    between atoms: _212  and  _213
REMARK   83  A    between atoms: _212  and  _215
REMARK   84  A    between atoms: _217  and  _219
REMARK   85  A    between atoms: _219  and  _220
REMARK   86  A    between atoms: _222  and  _224
REMARK   87  A    between atoms: _224  and  _225
REMARK   88  A    between atoms: _224  and  _227
REMARK   89  A    between atoms: _230  and  _232
REMARK   90  A    between atoms: _232  and  _233
REMARK   91  A    between atoms: _235  and  _237
REMARK   92  A    between atoms: _237  and  _238
REMARK   93  A    between atoms: _237  and  _240
REMARK   94  A    between atoms: _240  and  _241
REMARK   95  A    between atoms: _243  and  _245
REMARK   96  A    between atoms: _245  and  _246
REMARK   97  A    between atoms: _245  and  _248
REMARK   98  A    between atoms: _248  and  _249
REMARK   99  A    between atoms: _252  and  _254
REMARK  100  A    between atoms: _254  and  _255
REMARK  101  A    between atoms: _254  and  _257
REMARK  102  A    between atoms: _257  and  _258
REMARK  103  A    between atoms: _260  and  _262
REMARK  104  A    between atoms: _262  and  _263
REMARK  105  A    between atoms: _262  and  _265
REMARK  106  A    between atoms: _265  and  _266
REMARK  107  A    between atoms: _268  and  _270
REMARK  108  A    between atoms: _270  and  _271
REMARK  109  A    between atoms: _270  and  _273
REMARK  110  A    between atoms: _273  and  _274
REMARK  111  A    between atoms: _277  and  _279
REMARK  112  A    between atoms: _279  and  _280
REMARK  113  A    between atoms: _279  and  _282
REMARK  114  A    between atoms: _282  and  _283
REMARK  115  A    between atoms: _286  and  _288
REMARK  116  A    between atoms: _288  and  _289
REMARK  117  A    between atoms: _288  and  _291
REMARK  118  A    between atoms: _291  and  _292
REMARK  119  A    between atoms: _294  and  _296
REMARK  120  A    between atoms: _296  and  _297
REMARK  121  A    between atoms: _296  and  _299
REMARK  122  A    between atoms: _299  and  _300
REMARK  123  A    between atoms: _300  and  _301
REMARK  124  A    between atoms: _304  and  _306
REMARK  125  A    between atoms: _306  and  _307
REMARK  126  A    between atoms: _306  and  _309
REMARK  127  A    between atoms: _309  and  _310
REMARK  128  A    between atoms: _310  and  _311
REMARK  129  A    between atoms: _311  and  _312
REMARK  130  A    between atoms: _312  and  _313
REMARK  131  A    between atoms: _317  and  _319
REMARK  132  A    between atoms: _319  and  _320
REMARK  133  A    between atoms: _319  and  _322
REMARK  134  A    between atoms: _322  and  _323
REMARK  135  A    between atoms: _323  and  _324
REMARK  136  A    between atoms: _326  and  _328
REMARK  137  A    between atoms: _328  and  _329
REMARK  138  A    between atoms: _328  and  _331
REMARK  139  A    between atoms: _334  and  _336
REMARK  140  A    between atoms: _336  and  _337
REMARK  141  A    between atoms: _336  and  _339
REMARK  142  A    between atoms: _339  and  _340
REMARK  143  A    between atoms: _340  and  _341
REMARK  144  A    between atoms: _343  and  _345
REMARK  145  A    between atoms: _345  and  _346
REMARK  146  A    between atoms: _345  and  _348
REMARK  147  A    between atoms: _348  and  _349
REMARK  148  A    between atoms: _352  and  _354
REMARK  149  A    between atoms: _354  and  _355
REMARK  150  A    between atoms: _354  and  _357
REMARK  151  A    between atoms: _357  and  _358
REMARK  152  A    between atoms: _358  and  _359
REMARK  153  A    between atoms: _364  and  _366
REMARK  154  A    between atoms: _366  and  _367
REMARK  155  A    between atoms: _366  and  _369
REMARK  156  A    between atoms: _369  and  _370
REMARK  157  A    between atoms: _373  and  _375
REMARK  158  A    between atoms: _375  and  _376
REMARK  159  A    between atoms: _375  and  _378
REMARK  160  A    between atoms: _378  and  _379
REMARK  161  A    between atoms: _382  and  _384
REMARK  162  A    between atoms: _384  and  _385
REMARK  163  A    between atoms: _388  and  _390
REMARK  164  A    between atoms: _390  and  _391
REMARK  165  A    between atoms: _390  and  _393
REMARK  166  A    between atoms: _393  and  _394
REMARK  167  A    between atoms: _394  and  _395
REMARK  168  A    between atoms: _400  and  _402
REMARK  169  A    between atoms: _402  and  _403
REMARK  170  A    between atoms: _402  and  _405
REMARK  171  A    between atoms: _405  and  _406
REMARK  172  A    between atoms: _409  and  _411
REMARK  173  A    between atoms: _411  and  _412
REMARK  174  A    between atoms: _411  and  _414
REMARK  175  A    between atoms: _414  and  _415
REMARK  176  A    between atoms: _418  and  _420
REMARK  177  A    between atoms: _420  and  _421
REMARK  178  A    between atoms: _420  and  _423
REMARK  179  A    between atoms: _425  and  _427
REMARK  180  A    between atoms: _427  and  _428
REMARK  181  A    between atoms: _427  and  _430
REMARK  182  A    between atoms: _430  and  _431
REMARK  183  A    between atoms: _434  and  _436
REMARK  184  A    between atoms: _436  and  _437
REMARK  185  A    between atoms: _436  and  _439
REMARK  186  A    between atoms: _439  and  _440
REMARK  187  A    between atoms: _443  and  _445
REMARK  188  A    between atoms: _445  and  _446
REMARK  189  A    between atoms: _445  and  _448
REMARK  190  A    between atoms: _451  and  _453
REMARK  191  A    between atoms: _453  and  _454
REMARK  192  A    between atoms: _453  and  _456
REMARK  193  A    between atoms: _456  and  _457
REMARK  194  A    between atoms: _460  and  _462
REMARK  195  A    between atoms: _462  and  _463
REMARK  196  A    between atoms: _462  and  _465
REMARK  197  A    between atoms: _465  and  _466
REMARK  198  A    between atoms: _469  and  _471
REMARK  199  A    between atoms: _471  and  _472
REMARK  200  A    between atoms: _471  and  _474
REMARK  201  A    between atoms: _474  and  _475
REMARK  202  A    between atoms: _480  and  _482
REMARK  203  A    between atoms: _482  and  _483
REMARK  204  A    between atoms: _482  and  _485
REMARK  205  A    between atoms: _485  and  _486
REMARK  206  A    between atoms: _491  and  _492
REMARK  207  A    between atoms: _494  and  _496
REMARK  208  A    between atoms: _496  and  _497
REMARK  209  A    between atoms: _496  and  _499
REMARK  210  A    between atoms: _499  and  _500
REMARK  211  A    between atoms: _500  and  _501
REMARK  212  A    between atoms: _503  and  _505
REMARK  213  A    between atoms: _505  and  _506
REMARK  214  A    between atoms: _505  and  _508
REMARK  215  A    between atoms: _508  and  _509
REMARK  216  A    between atoms: _512  and  _514
REMARK  217  A    between atoms: _514  and  _515
REMARK  218  A    between atoms: _514  and  _517
REMARK  219  A    between atoms: _517  and  _518
REMARK  220  A    between atoms: _520  and  _522
REMARK  221  A    between atoms: _522  and  _523
REMARK  222  A    between atoms: _522  and  _525
REMARK  223  A    between atoms: _525  and  _526
REMARK  224  A    between atoms: _531  and  _532
REMARK  225  A    between atoms: _534  and  _536
REMARK  226  A    between atoms: _536  and  _537
REMARK  227  A    between atoms: _536  and  _539
REMARK  228  A    between atoms: _539  and  _540
REMARK                            x       y       z     vdW  Elec       q    Type
REMARK                         _______ _______ _______ _____ _____    ______ ____
ROOT
ATOM      1  O   HOH     1      12.419  -2.207   3.074  0.00  0.00    +0.000 OA
ENDROOT
TORSDOF 0
REMARK  Name = ../refined-set-2016/4qdk/4qdk_pocket.pdb
REMARK  228 active torsions:
REMARK  status: ('A' for Active; 'I' for Inactive)
REMARK    1  A    between atoms: _1  and  _3
REMARK    2  A    between atoms: _3  and  _4
REMARK    3  A    between atoms: _3  and  _6
REMARK    4  A    between atoms: _6  and  _7
REMARK    5  A    between atoms: _10  and  _12
REMARK    6  A    between atoms: _12  and  _13
REMARK    7  A    between atoms: _12  and  _15
REMARK    8  A    between atoms: _15  and  _16
REMARK    9  A    between atoms: _16  and  _17
REMARK   10  A    between atoms: _17  and  _18
REMARK   11  A    between atoms: _18  and  _19
REMARK   12  A    between atoms: _23  and  _25
REMARK   13  A    between atoms: _25  and  _26
REMARK   14  A    between atoms: _25  and  _28
REMARK   15  A    between atoms: _28  and  _29
REMARK   16  A    between atoms: _32  and  _34
REMARK   17  A    between atoms: _34  and  _35
REMARK   18  A    between atoms: _34  and  _37
REMARK   19  A    between atoms: _40  and  _42
REMARK   20  A    between atoms: _42  and  _43
REMARK   21  A    between atoms: _42  and  _45
REMARK   22  A    between atoms: _45  and  _46
REMARK   23  A    between atoms: _46  and  _47
REMARK   24  A    between atoms: _47  and  _48
REMARK   25  A    between atoms: _57  and  _59
REMARK   26  A    between atoms: _59  and  _60
REMARK   27  A    between atoms: _59  and  _62
REMARK   28  A    between atoms: _62  and  _63
REMARK   29  A    between atoms: _66  and  _68
REMARK   30  A    between atoms: _68  and  _69
REMARK   31  A    between atoms: _68  and  _71
REMARK   32  A    between atoms: _71  and  _72
REMARK   33  A    between atoms: _77  and  _78
REMARK   34  A    between atoms: _80  and  _82
REMARK   35  A    between atoms: _82  and  _83
REMARK   36  A    between atoms: _82  and  _85
REMARK   37  A    between atoms: _85  and  _86
REMARK   38  A    between atoms: _92  and  _94
REMARK   39  A    between atoms: _94  and  _95
REMARK   40  A    between atoms: _94  and  _97
REMARK   41  A    between atoms: _97  and  _98
REMARK   42  A    between atoms: _103  and  _105
REMARK   43  A    between atoms: _105  and  _106
REMARK   44  A    between atoms: _108  and  _110
REMARK   45  A    between atoms: _110  and  _111
REMARK   46  A    between atoms: _110  and  _113
REMARK   47  A    between atoms: _113  and  _114
REMARK   48  A    between atoms: _120  and  _122
REMARK   49  A    between atoms: _122  and  _123
REMARK   50  A    between atoms: _122  and  _125
REMARK   51  A    between atoms: _125  and  _126
REMARK   52  A    between atoms: _136  and  _138
REMARK   53  A    between atoms: _138  and  _139
REMARK   54  A    between atoms: _138  and  _141
REMARK   55  A    between atoms: _141  and  _142
REMARK   56  A    between atoms: _147  and  _148
REMARK   57  A    between atoms: _150  and  _152
REMARK   58  A    between atoms: _152  and  _153
REMARK   59  A    between atoms: _152  and  _155
REMARK   60  A    between atoms: _155  and  _156
REMARK   61  A    between atoms: _161  and  _163
REMARK   62  A    between atoms: _163  and  _164
REMARK   63  A    between atoms: _163  and  _166
REMARK   64  A    between atoms: _166  and  _167
REMARK   65  A    between atoms: _167  and  _168
REMARK   66  A    between atoms: _173  and  _175
REMARK   67  A    between atoms: _175  and  _176
REMARK   68  A    between atoms: _175  and  _178
REMARK   69  A    between atoms: _178  and  _179
REMARK   70  A    between atoms: _182  and  _184
REMARK   71  A    between atoms: _184  and  _185
REMARK   72  A    between atoms: _184  and  _187
REMARK   73  A    between atoms: _190  and  _192
REMARK   74  A    between atoms: _192  and  _193
REMARK   75  A    between atoms: _192  and  _195
REMARK   76  A    between atoms: _195  and  _196
REMARK   77  A    between atoms: _199  and  _201
REMARK   78  A    between atoms: _201  and  _202
REMARK   79  A    between atoms: _205  and  _207
REMARK   80  A    between atoms: _207  and  _208
REMARK   81  A    between atoms: _210  and  _212
REMARK   82  A    between atoms: _212  and  _213
REMARK   83  A    between atoms: _212  and  _215
REMARK   84  A    between atoms: _217  and  _219
REMARK   85  A    between atoms: _219  and  _220
REMARK   86  A    between atoms: _222  and  _224
REMARK   87  A    between atoms: _224  and  _225
REMARK   88  A    between atoms: _224  and  _227
REMARK   89  A    between atoms: _230  and  _232
REMARK   90  A    between atoms: _232  and  _233
REMARK   91  A    between atoms: _235  and  _237
REMARK   92  A    between atoms: _237  and  _238
REMARK   93  A    between atoms: _237  and  _240
REMARK   94  A    between atoms: _240  and  _241
REMARK   95  A    between atoms: _243  and  _245
REMARK   96  A    between atoms: _245  and  _246
REMARK   97  A    between atoms: _245  and  _248
REMARK   98  A    between atoms: _248  and  _249
REMARK   99  A    between atoms: _252  and  _254
REMARK  100  A    between atoms: _254  and  _255
REMARK  101  A    between atoms: _254  and  _257
REMARK  102  A    between atoms: _257  and  _258
REMARK  103  A    between atoms: _260  and  _262
REMARK  104  A    between atoms: _262  and  _263
REMARK  105  A    between atoms: _262  and  _265
REMARK  106  A    between atoms: _265  and  _266
REMARK  107  A    between atoms: _268  and  _270
REMARK  108  A    between atoms: _270  and  _271
REMARK  109  A    between atoms: _270  and  _273
REMARK  110  A    between atoms: _273  and  _274
REMARK  111  A    between atoms: _277  and  _279
REMARK  112  A    between atoms: _279  and  _280
REMARK  113  A    between atoms: _279  and  _282
REMARK  114  A    between atoms: _282  and  _283
REMARK  115  A    between atoms: _286  and  _288
REMARK  116  A    between atoms: _288  and  _289
REMARK  117  A    between atoms: _288  and  _291
REMARK  118  A    between atoms: _291  and  _292
REMARK  119  A    between atoms: _294  and  _296
REMARK  120  A    between atoms: _296  and  _297
REMARK  121  A    between atoms: _296  and  _299
REMARK  122  A    between atoms: _299  and  _300
REMARK  123  A    between atoms: _300  and  _301
REMARK  124  A    between atoms: _304  and  _306
REMARK  125  A    between atoms: _306  and  _307
REMARK  126  A    between atoms: _306  and  _309
REMARK  127  A    between atoms: _309  and  _310
REMARK  128  A    between atoms: _310  and  _311
REMARK  129  A    between atoms: _311  and  _312
REMARK  130  A    between atoms: _312  and  _313
REMARK  131  A    between atoms: _317  and  _319
REMARK  132  A    between atoms: _319  and  _320
REMARK  133  A    between atoms: _319  and  _322
REMARK  134  A    between atoms: _322  and  _323
REMARK  135  A    between atoms: _323  and  _324
REMARK  136  A    between atoms: _326  and  _328
REMARK  137  A    between atoms: _328  and  _329
REMARK  138  A    between atoms: _328  and  _331
REMARK  139  A    between atoms: _334  and  _336
REMARK  140  A    between atoms: _336  and  _337
REMARK  141  A    between atoms: _336  and  _339
REMARK  142  A    between atoms: _339  and  _340
REMARK  143  A    between atoms: _340  and  _341
REMARK  144  A    between atoms: _343  and  _345
REMARK  145  A    between atoms: _345  and  _346
REMARK  146  A    between atoms: _345  and  _348
REMARK  147  A    between atoms: _348  and  _349
REMARK  148  A    between atoms: _352  and  _354
REMARK  149  A    between atoms: _354  and  _355
REMARK  150  A    between atoms: _354  and  _357
REMARK  151  A    between atoms: _357  and  _358
REMARK  152  A    between atoms: _358  and  _359
REMARK  153  A    between atoms: _364  and  _366
REMARK  154  A    between atoms: _366  and  _367
REMARK  155  A    between atoms: _366  and  _369
REMARK  156  A    between atoms: _369  and  _370
REMARK  157  A    between atoms: _373  and  _375
REMARK  158  A    between atoms: _375  and  _376
REMARK  159  A    between atoms: _375  and  _378
REMARK  160  A    between atoms: _378  and  _379
REMARK  161  A    between atoms: _382  and  _384
REMARK  162  A    between atoms: _384  and  _385
REMARK  163  A    between atoms: _388  and  _390
REMARK  164  A    between atoms: _390  and  _391
REMARK  165  A    between atoms: _390  and  _393
REMARK  166  A    between atoms: _393  and  _394
REMARK  167  A    between atoms: _394  and  _395
REMARK  168  A    between atoms: _400  and  _402
REMARK  169  A    between atoms: _402  and  _403
REMARK  170  A    between atoms: _402  and  _405
REMARK  171  A    between atoms: _405  and  _406
REMARK  172  A    between atoms: _409  and  _411
REMARK  173  A    between atoms: _411  and  _412
REMARK  174  A    between atoms: _411  and  _414
REMARK  175  A    between atoms: _414  and  _415
REMARK  176  A    between atoms: _418  and  _420
REMARK  177  A    between atoms: _420  and  _421
REMARK  178  A    between atoms: _420  and  _423
REMARK  179  A    between atoms: _425  and  _427
REMARK  180  A    between atoms: _427  and  _428
REMARK  181  A    between atoms: _427  and  _430
REMARK  182  A    between atoms: _430  and  _431
REMARK  183  A    between atoms: _434  and  _436
REMARK  184  A    between atoms: _436  and  _437
REMARK  185  A    between atoms: _436  and  _439
REMARK  186  A    between atoms: _439  and  _440
REMARK  187  A    between atoms: _443  and  _445
REMARK  188  A    between atoms: _445  and  _446
REMARK  189  A    between atoms: _445  and  _448
REMARK  190  A    between atoms: _451  and  _453
REMARK  191  A    between atoms: _453  and  _454
REMARK  192  A    between atoms: _453  and  _456
REMARK  193  A    between atoms: _456  and  _457
REMARK  194  A    between atoms: _460  and  _462
REMARK  195  A    between atoms: _462  and  _463
REMARK  196  A    between atoms: _462  and  _465
REMARK  197  A    between atoms: _465  and  _466
REMARK  198  A    between atoms: _469  and  _471
REMARK  199  A    between atoms: _471  and  _472
REMARK  200  A    between atoms: _471  and  _474
REMARK  201  A    between atoms: _474  and  _475
REMARK  202  A    between atoms: _480  and  _482
REMARK  203  A    between atoms: _482  and  _483
REMARK  204  A    between atoms: _482  and  _485
REMARK  205  A    between atoms: _485  and  _486
REMARK  206  A    between atoms: _491  and  _492
REMARK  207  A    between atoms: _494  and  _496
REMARK  208  A    between atoms: _496  and  _497
REMARK  209  A    between atoms: _496  and  _499
REMARK  210  A    between atoms: _499  and  _500
REMARK  211  A    between atoms: _500  and  _501
REMARK  212  A    between atoms: _503  and  _505
REMARK  213  A    between atoms: _505  and  _506
REMARK  214  A    between atoms: _505  and  _508
REMARK  215  A    between atoms: _508  and  _509
REMARK  216  A    between atoms: _512  and  _514
REMARK  217  A    between atoms: _514  and  _515
REMARK  218  A    between atoms: _514  and  _517
REMARK  219  A    between atoms: _517  and  _518
REMARK  220  A    between atoms: _520  and  _522
REMARK  221  A    between atoms: _522  and  _523
REMARK  222  A    between atoms: _522  and  _525
REMARK  223  A    between atoms: _525  and  _526
REMARK  224  A    between atoms: _531  and  _532
REMARK  225  A    between atoms: _534  and  _536
REMARK  226  A    between atoms: _536  and  _537
REMARK  227  A    between atoms: _536  and  _539
REMARK  228  A    between atoms: _539  and  _540
REMARK                            x       y       z     vdW  Elec       q    Type
REMARK                         _______ _______ _______ _____ _____    ______ ____
ROOT
ATOM      1  O   HOH     1      11.812   3.308   0.771  0.00  0.00    +0.000 OA
ENDROOT
TORSDOF 0
REMARK  Name = ../refined-set-2016/4qdk/4qdk_pocket.pdb
REMARK  228 active torsions:
REMARK  status: ('A' for Active; 'I' for Inactive)
REMARK    1  A    between atoms: _1  and  _3
REMARK    2  A    between atoms: _3  and  _4
REMARK    3  A    between atoms: _3  and  _6
REMARK    4  A    between atoms: _6  and  _7
REMARK    5  A    between atoms: _10  and  _12
REMARK    6  A    between atoms: _12  and  _13
REMARK    7  A    between atoms: _12  and  _15
REMARK    8  A    between atoms: _15  and  _16
REMARK    9  A    between atoms: _16  and  _17
REMARK   10  A    between atoms: _17  and  _18
REMARK   11  A    between atoms: _18  and  _19
REMARK   12  A    between atoms: _23  and  _25
REMARK   13  A    between atoms: _25  and  _26
REMARK   14  A    between atoms: _25  and  _28
REMARK   15  A    between atoms: _28  and  _29
REMARK   16  A    between atoms: _32  and  _34
REMARK   17  A    between atoms: _34  and  _35
REMARK   18  A    between atoms: _34  and  _37
REMARK   19  A    between atoms: _40  and  _42
REMARK   20  A    between atoms: _42  and  _43
REMARK   21  A    between atoms: _42  and  _45
REMARK   22  A    between atoms: _45  and  _46
REMARK   23  A    between atoms: _46  and  _47
REMARK   24  A    between atoms: _47  and  _48
REMARK   25  A    between atoms: _57  and  _59
REMARK   26  A    between atoms: _59  and  _60
REMARK   27  A    between atoms: _59  and  _62
REMARK   28  A    between atoms: _62  and  _63
REMARK   29  A    between atoms: _66  and  _68
REMARK   30  A    between atoms: _68  and  _69
REMARK   31  A    between atoms: _68  and  _71
REMARK   32  A    between atoms: _71  and  _72
REMARK   33  A    between atoms: _77  and  _78
REMARK   34  A    between atoms: _80  and  _82
REMARK   35  A    between atoms: _82  and  _83
REMARK   36  A    between atoms: _82  and  _85
REMARK   37  A    between atoms: _85  and  _86
REMARK   38  A    between atoms: _92  and  _94
REMARK   39  A    between atoms: _94  and  _95
REMARK   40  A    between atoms: _94  and  _97
REMARK   41  A    between atoms: _97  and  _98
REMARK   42  A    between atoms: _103  and  _105
REMARK   43  A    between atoms: _105  and  _106
REMARK   44  A    between atoms: _108  and  _110
REMARK   45  A    between atoms: _110  and  _111
REMARK   46  A    between atoms: _110  and  _113
REMARK   47  A    between atoms: _113  and  _114
REMARK   48  A    between atoms: _120  and  _122
REMARK   49  A    between atoms: _122  and  _123
REMARK   50  A    between atoms: _122  and  _125
REMARK   51  A    between atoms: _125  and  _126
REMARK   52  A    between atoms: _136  and  _138
REMARK   53  A    between atoms: _138  and  _139
REMARK   54  A    between atoms: _138  and  _141
REMARK   55  A    between atoms: _141  and  _142
REMARK   56  A    between atoms: _147  and  _148
REMARK   57  A    between atoms: _150  and  _152
REMARK   58  A    between atoms: _152  and  _153
REMARK   59  A    between atoms: _152  and  _155
REMARK   60  A    between atoms: _155  and  _156
REMARK   61  A    between atoms: _161  and  _163
REMARK   62  A    between atoms: _163  and  _164
REMARK   63  A    between atoms: _163  and  _166
REMARK   64  A    between atoms: _166  and  _167
REMARK   65  A    between atoms: _167  and  _168
REMARK   66  A    between atoms: _173  and  _175
REMARK   67  A    between atoms: _175  and  _176
REMARK   68  A    between atoms: _175  and  _178
REMARK   69  A    between atoms: _178  and  _179
REMARK   70  A    between atoms: _182  and  _184
REMARK   71  A    between atoms: _184  and  _185
REMARK   72  A    between atoms: _184  and  _187
REMARK   73  A    between atoms: _190  and  _192
REMARK   74  A    between atoms: _192  and  _193
REMARK   75  A    between atoms: _192  and  _195
REMARK   76  A    between atoms: _195  and  _196
REMARK   77  A    between atoms: _199  and  _201
REMARK   78  A    between atoms: _201  and  _202
REMARK   79  A    between atoms: _205  and  _207
REMARK   80  A    between atoms: _207  and  _208
REMARK   81  A    between atoms: _210  and  _212
REMARK   82  A    between atoms: _212  and  _213
REMARK   83  A    between atoms: _212  and  _215
REMARK   84  A    between atoms: _217  and  _219
REMARK   85  A    between atoms: _219  and  _220
REMARK   86  A    between atoms: _222  and  _224
REMARK   87  A    between atoms: _224  and  _225
REMARK   88  A    between atoms: _224  and  _227
REMARK   89  A    between atoms: _230  and  _232
REMARK   90  A    between atoms: _232  and  _233
REMARK   91  A    between atoms: _235  and  _237
REMARK   92  A    between atoms: _237  and  _238
REMARK   93  A    between atoms: _237  and  _240
REMARK   94  A    between atoms: _240  and  _241
REMARK   95  A    between atoms: _243  and  _245
REMARK   96  A    between atoms: _245  and  _246
REMARK   97  A    between atoms: _245  and  _248
REMARK   98  A    between atoms: _248  and  _249
REMARK   99  A    between atoms: _252  and  _254
REMARK  100  A    between atoms: _254  and  _255
REMARK  101  A    between atoms: _254  and  _257
REMARK  102  A    between atoms: _257  and  _258
REMARK  103  A    between atoms: _260  and  _262
REMARK  104  A    between atoms: _262  and  _263
REMARK  105  A    between atoms: _262  and  _265
REMARK  106  A    between atoms: _265  and  _266
REMARK  107  A    between atoms: _268  and  _270
REMARK  108  A    between atoms: _270  and  _271
REMARK  109  A    between atoms: _270  and  _273
REMARK  110  A    between atoms: _273  and  _274
REMARK  111  A    between atoms: _277  and  _279
REMARK  112  A    between atoms: _279  and  _280
REMARK  113  A    between atoms: _279  and  _282
REMARK  114  A    between atoms: _282  and  _283
REMARK  115  A    between atoms: _286  and  _288
REMARK  116  A    between atoms: _288  and  _289
REMARK  117  A    between atoms: _288  and  _291
REMARK  118  A    between atoms: _291  and  _292
REMARK  119  A    between atoms: _294  and  _296
REMARK  120  A    between atoms: _296  and  _297
REMARK  121  A    between atoms: _296  and  _299
REMARK  122  A    between atoms: _299  and  _300
REMARK  123  A    between atoms: _300  and  _301
REMARK  124  A    between atoms: _304  and  _306
REMARK  125  A    between atoms: _306  and  _307
REMARK  126  A    between atoms: _306  and  _309
REMARK  127  A    between atoms: _309  and  _310
REMARK  128  A    between atoms: _310  and  _311
REMARK  129  A    between atoms: _311  and  _312
REMARK  130  A    between atoms: _312  and  _313
REMARK  131  A    between atoms: _317  and  _319
REMARK  132  A    between atoms: _319  and  _320
REMARK  133  A    between atoms: _319  and  _322
REMARK  134  A    between atoms: _322  and  _323
REMARK  135  A    between atoms: _323  and  _324
REMARK  136  A    between atoms: _326  and  _328
REMARK  137  A    between atoms: _328  and  _329
REMARK  138  A    between atoms: _328  and  _331
REMARK  139  A    between atoms: _334  and  _336
REMARK  140  A    between atoms: _336  and  _337
REMARK  141  A    between atoms: _336  and  _339
REMARK  142  A    between atoms: _339  and  _340
REMARK  143  A    between atoms: _340  and  _341
REMARK  144  A    between atoms: _343  and  _345
REMARK  145  A    between atoms: _345  and  _346
REMARK  146  A    between atoms: _345  and  _348
REMARK  147  A    between atoms: _348  and  _349
REMARK  148  A    between atoms: _352  and  _354
REMARK  149  A    between atoms: _354  and  _355
REMARK  150  A    between atoms: _354  and  _357
REMARK  151  A    between atoms: _357  and  _358
REMARK  152  A    between atoms: _358  and  _359
REMARK  153  A    between atoms: _364  and  _366
REMARK  154  A    between atoms: _366  and  _367
REMARK  155  A    between atoms: _366  and  _369
REMARK  156  A    between atoms: _369  and  _370
REMARK  157  A    between atoms: _373  and  _375
REMARK  158  A    between atoms: _375  and  _376
REMARK  159  A    between atoms: _375  and  _378
REMARK  160  A    between atoms: _378  and  _379
REMARK  161  A    between atoms: _382  and  _384
REMARK  162  A    between atoms: _384  and  _385
REMARK  163  A    between atoms: _388  and  _390
REMARK  164  A    between atoms: _390  and  _391
REMARK  165  A    between atoms: _390  and  _393
REMARK  166  A    between atoms: _393  and  _394
REMARK  167  A    between atoms: _394  and  _395
REMARK  168  A    between atoms: _400  and  _402
REMARK  169  A    between atoms: _402  and  _403
REMARK  170  A    between atoms: _402  and  _405
REMARK  171  A    between atoms: _405  and  _406
REMARK  172  A    between atoms: _409  and  _411
REMARK  173  A    between atoms: _411  and  _412
REMARK  174  A    between atoms: _411  and  _414
REMARK  175  A    between atoms: _414  and  _415
REMARK  176  A    between atoms: _418  and  _420
REMARK  177  A    between atoms: _420  and  _421
REMARK  178  A    between atoms: _420  and  _423
REMARK  179  A    between atoms: _425  and  _427
REMARK  180  A    between atoms: _427  and  _428
REMARK  181  A    between atoms: _427  and  _430
REMARK  182  A    between atoms: _430  and  _431
REMARK  183  A    between atoms: _434  and  _436
REMARK  184  A    between atoms: _436  and  _437
REMARK  185  A    between atoms: _436  and  _439
REMARK  186  A    between atoms: _439  and  _440
REMARK  187  A    between atoms: _443  and  _445
REMARK  188  A    between atoms: _445  and  _446
REMARK  189  A    between atoms: _445  and  _448
REMARK  190  A    between atoms: _451  and  _453
REMARK  191  A    between atoms: _453  and  _454
REMARK  192  A    between atoms: _453  and  _456
REMARK  193  A    between atoms: _456  and  _457
REMARK  194  A    between atoms: _460  and  _462
REMARK  195  A    between atoms: _462  and  _463
REMARK  196  A    between atoms: _462  and  _465
REMARK  197  A    between atoms: _465  and  _466
REMARK  198  A    between atoms: _469  and  _471
REMARK  199  A    between atoms: _471  and  _472
REMARK  200  A    between atoms: _471  and  _474
REMARK  201  A    between atoms: _474  and  _475
REMARK  202  A    between atoms: _480  and  _482
REMARK  203  A    between atoms: _482  and  _483
REMARK  204  A    between atoms: _482  and  _485
REMARK  205  A    between atoms: _485  and  _486
REMARK  206  A    between atoms: _491  and  _492
REMARK  207  A    between atoms: _494  and  _496
REMARK  208  A    between atoms: _496  and  _497
REMARK  209  A    between atoms: _496  and  _499
REMARK  210  A    between atoms: _499  and  _500
REMARK  211  A    between atoms: _500  and  _501
REMARK  212  A    between atoms: _503  and  _505
REMARK  213  A    between atoms: _505  and  _506
REMARK  214  A    between atoms: _505  and  _508
REMARK  215  A    between atoms: _508  and  _509
REMARK  216  A    between atoms: _512  and  _514
REMARK  217  A    between atoms: _514  and  _515
REMARK  218  A    between atoms: _514  and  _517
REMARK  219  A    between atoms: _517  and  _518
REMARK  220  A    between atoms: _520  and  _522
REMARK  221  A    between atoms: _522  and  _523
REMARK  222  A    between atoms: _522  and  _525
REMARK  223  A    between atoms: _525  and  _526
REMARK  224  A    between atoms: _531  and  _532
REMARK  225  A    between atoms: _534  and  _536
REMARK  226  A    between atoms: _536  and  _537
REMARK  227  A    between atoms: _536  and  _539
REMARK  228  A    between atoms: _539  and  _540
REMARK                            x       y       z     vdW  Elec       q    Type
REMARK                         _______ _______ _______ _____ _____    ______ ____
ROOT
ATOM      1  O   HOH     1      31.217   5.420  18.051  0.00  0.00    +0.000 OA
ENDROOT
TORSDOF 0
REMARK  Name = ../refined-set-2016/4qdk/4qdk_pocket.pdb
REMARK  228 active torsions:
REMARK  status: ('A' for Active; 'I' for Inactive)
REMARK    1  A    between atoms: _1  and  _3
REMARK    2  A    between atoms: _3  and  _4
REMARK    3  A    between atoms: _3  and  _6
REMARK    4  A    between atoms: _6  and  _7
REMARK    5  A    between atoms: _10  and  _12
REMARK    6  A    between atoms: _12  and  _13
REMARK    7  A    between atoms: _12  and  _15
REMARK    8  A    between atoms: _15  and  _16
REMARK    9  A    between atoms: _16  and  _17
REMARK   10  A    between atoms: _17  and  _18
REMARK   11  A    between atoms: _18  and  _19
REMARK   12  A    between atoms: _23  and  _25
REMARK   13  A    between atoms: _25  and  _26
REMARK   14  A    between atoms: _25  and  _28
REMARK   15  A    between atoms: _28  and  _29
REMARK   16  A    between atoms: _32  and  _34
REMARK   17  A    between atoms: _34  and  _35
REMARK   18  A    between atoms: _34  and  _37
REMARK   19  A    between atoms: _40  and  _42
REMARK   20  A    between atoms: _42  and  _43
REMARK   21  A    between atoms: _42  and  _45
REMARK   22  A    between atoms: _45  and  _46
REMARK   23  A    between atoms: _46  and  _47
REMARK   24  A    between atoms: _47  and  _48
REMARK   25  A    between atoms: _57  and  _59
REMARK   26  A    between atoms: _59  and  _60
REMARK   27  A    between atoms: _59  and  _62
REMARK   28  A    between atoms: _62  and  _63
REMARK   29  A    between atoms: _66  and  _68
REMARK   30  A    between atoms: _68  and  _69
REMARK   31  A    between atoms: _68  and  _71
REMARK   32  A    between atoms: _71  and  _72
REMARK   33  A    between atoms: _77  and  _78
REMARK   34  A    between atoms: _80  and  _82
REMARK   35  A    between atoms: _82  and  _83
REMARK   36  A    between atoms: _82  and  _85
REMARK   37  A    between atoms: _85  and  _86
REMARK   38  A    between atoms: _92  and  _94
REMARK   39  A    between atoms: _94  and  _95
REMARK   40  A    between atoms: _94  and  _97
REMARK   41  A    between atoms: _97  and  _98
REMARK   42  A    between atoms: _103  and  _105
REMARK   43  A    between atoms: _105  and  _106
REMARK   44  A    between atoms: _108  and  _110
REMARK   45  A    between atoms: _110  and  _111
REMARK   46  A    between atoms: _110  and  _113
REMARK   47  A    between atoms: _113  and  _114
REMARK   48  A    between atoms: _120  and  _122
REMARK   49  A    between atoms: _122  and  _123
REMARK   50  A    between atoms: _122  and  _125
REMARK   51  A    between atoms: _125  and  _126
REMARK   52  A    between atoms: _136  and  _138
REMARK   53  A    between atoms: _138  and  _139
REMARK   54  A    between atoms: _138  and  _141
REMARK   55  A    between atoms: _141  and  _142
REMARK   56  A    between atoms: _147  and  _148
REMARK   57  A    between atoms: _150  and  _152
REMARK   58  A    between atoms: _152  and  _153
REMARK   59  A    between atoms: _152  and  _155
REMARK   60  A    between atoms: _155  and  _156
REMARK   61  A    between atoms: _161  and  _163
REMARK   62  A    between atoms: _163  and  _164
REMARK   63  A    between atoms: _163  and  _166
REMARK   64  A    between atoms: _166  and  _167
REMARK   65  A    between atoms: _167  and  _168
REMARK   66  A    between atoms: _173  and  _175
REMARK   67  A    between atoms: _175  and  _176
REMARK   68  A    between atoms: _175  and  _178
REMARK   69  A    between atoms: _178  and  _179
REMARK   70  A    between atoms: _182  and  _184
REMARK   71  A    between atoms: _184  and  _185
REMARK   72  A    between atoms: _184  and  _187
REMARK   73  A    between atoms: _190  and  _192
REMARK   74  A    between atoms: _192  and  _193
REMARK   75  A    between atoms: _192  and  _195
REMARK   76  A    between atoms: _195  and  _196
REMARK   77  A    between atoms: _199  and  _201
REMARK   78  A    between atoms: _201  and  _202
REMARK   79  A    between atoms: _205  and  _207
REMARK   80  A    between atoms: _207  and  _208
REMARK   81  A    between atoms: _210  and  _212
REMARK   82  A    between atoms: _212  and  _213
REMARK   83  A    between atoms: _212  and  _215
REMARK   84  A    between atoms: _217  and  _219
REMARK   85  A    between atoms: _219  and  _220
REMARK   86  A    between atoms: _222  and  _224
REMARK   87  A    between atoms: _224  and  _225
REMARK   88  A    between atoms: _224  and  _227
REMARK   89  A    between atoms: _230  and  _232
REMARK   90  A    between atoms: _232  and  _233
REMARK   91  A    between atoms: _235  and  _237
REMARK   92  A    between atoms: _237  and  _238
REMARK   93  A    between atoms: _237  and  _240
REMARK   94  A    between atoms: _240  and  _241
REMARK   95  A    between atoms: _243  and  _245
REMARK   96  A    between atoms: _245  and  _246
REMARK   97  A    between atoms: _245  and  _248
REMARK   98  A    between atoms: _248  and  _249
REMARK   99  A    between atoms: _252  and  _254
REMARK  100  A    between atoms: _254  and  _255
REMARK  101  A    between atoms: _254  and  _257
REMARK  102  A    between atoms: _257  and  _258
REMARK  103  A    between atoms: _260  and  _262
REMARK  104  A    between atoms: _262  and  _263
REMARK  105  A    between atoms: _262  and  _265
REMARK  106  A    between atoms: _265  and  _266
REMARK  107  A    between atoms: _268  and  _270
REMARK  108  A    between atoms: _270  and  _271
REMARK  109  A    between atoms: _270  and  _273
REMARK  110  A    between atoms: _273  and  _274
REMARK  111  A    between atoms: _277  and  _279
REMARK  112  A    between atoms: _279  and  _280
REMARK  113  A    between atoms: _279  and  _282
REMARK  114  A    between atoms: _282  and  _283
REMARK  115  A    between atoms: _286  and  _288
REMARK  116  A    between atoms: _288  and  _289
REMARK  117  A    between atoms: _288  and  _291
REMARK  118  A    between atoms: _291  and  _292
REMARK  119  A    between atoms: _294  and  _296
REMARK  120  A    between atoms: _296  and  _297
REMARK  121  A    between atoms: _296  and  _299
REMARK  122  A    between atoms: _299  and  _300
REMARK  123  A    between atoms: _300  and  _301
REMARK  124  A    between atoms: _304  and  _306
REMARK  125  A    between atoms: _306  and  _307
REMARK  126  A    between atoms: _306  and  _309
REMARK  127  A    between atoms: _309  and  _310
REMARK  128  A    between atoms: _310  and  _311
REMARK  129  A    between atoms: _311  and  _312
REMARK  130  A    between atoms: _312  and  _313
REMARK  131  A    between atoms: _317  and  _319
REMARK  132  A    between atoms: _319  and  _320
REMARK  133  A    between atoms: _319  and  _322
REMARK  134  A    between atoms: _322  and  _323
REMARK  135  A    between atoms: _323  and  _324
REMARK  136  A    between atoms: _326  and  _328
REMARK  137  A    between atoms: _328  and  _329
REMARK  138  A    between atoms: _328  and  _331
REMARK  139  A    between atoms: _334  and  _336
REMARK  140  A    between atoms: _336  and  _337
REMARK  141  A    between atoms: _336  and  _339
REMARK  142  A    between atoms: _339  and  _340
REMARK  143  A    between atoms: _340  and  _341
REMARK  144  A    between atoms: _343  and  _345
REMARK  145  A    between atoms: _345  and  _346
REMARK  146  A    between atoms: _345  and  _348
REMARK  147  A    between atoms: _348  and  _349
REMARK  148  A    between atoms: _352  and  _354
REMARK  149  A    between atoms: _354  and  _355
REMARK  150  A    between atoms: _354  and  _357
REMARK  151  A    between atoms: _357  and  _358
REMARK  152  A    between atoms: _358  and  _359
REMARK  153  A    between atoms: _364  and  _366
REMARK  154  A    between atoms: _366  and  _367
REMARK  155  A    between atoms: _366  and  _369
REMARK  156  A    between atoms: _369  and  _370
REMARK  157  A    between atoms: _373  and  _375
REMARK  158  A    between atoms: _375  and  _376
REMARK  159  A    between atoms: _375  and  _378
REMARK  160  A    between atoms: _378  and  _379
REMARK  161  A    between atoms: _382  and  _384
REMARK  162  A    between atoms: _384  and  _385
REMARK  163  A    between atoms: _388  and  _390
REMARK  164  A    between atoms: _390  and  _391
REMARK  165  A    between atoms: _390  and  _393
REMARK  166  A    between atoms: _393  and  _394
REMARK  167  A    between atoms: _394  and  _395
REMARK  168  A    between atoms: _400  and  _402
REMARK  169  A    between atoms: _402  and  _403
REMARK  170  A    between atoms: _402  and  _405
REMARK  171  A    between atoms: _405  and  _406
REMARK  172  A    between atoms: _409  and  _411
REMARK  173  A    between atoms: _411  and  _412
REMARK  174  A    between atoms: _411  and  _414
REMARK  175  A    between atoms: _414  and  _415
REMARK  176  A    between atoms: _418  and  _420
REMARK  177  A    between atoms: _420  and  _421
REMARK  178  A    between atoms: _420  and  _423
REMARK  179  A    between atoms: _425  and  _427
REMARK  180  A    between atoms: _427  and  _428
REMARK  181  A    between atoms: _427  and  _430
REMARK  182  A    between atoms: _430  and  _431
REMARK  183  A    between atoms: _434  and  _436
REMARK  184  A    between atoms: _436  and  _437
REMARK  185  A    between atoms: _436  and  _439
REMARK  186  A    between atoms: _439  and  _440
REMARK  187  A    between atoms: _443  and  _445
REMARK  188  A    between atoms: _445  and  _446
REMARK  189  A    between atoms: _445  and  _448
REMARK  190  A    between atoms: _451  and  _453
REMARK  191  A    between atoms: _453  and  _454
REMARK  192  A    between atoms: _453  and  _456
REMARK  193  A    between atoms: _456  and  _457
REMARK  194  A    between atoms: _460  and  _462
REMARK  195  A    between atoms: _462  and  _463
REMARK  196  A    between atoms: _462  and  _465
REMARK  197  A    between atoms: _465  and  _466
REMARK  198  A    between atoms: _469  and  _471
REMARK  199  A    between atoms: _471  and  _472
REMARK  200  A    between atoms: _471  and  _474
REMARK  201  A    between atoms: _474  and  _475
REMARK  202  A    between atoms: _480  and  _482
REMARK  203  A    between atoms: _482  and  _483
REMARK  204  A    between atoms: _482  and  _485
REMARK  205  A    between atoms: _485  and  _486
REMARK  206  A    between atoms: _491  and  _492
REMARK  207  A    between atoms: _494  and  _496
REMARK  208  A    between atoms: _496  and  _497
REMARK  209  A    between atoms: _496  and  _499
REMARK  210  A    between atoms: _499  and  _500
REMARK  211  A    between atoms: _500  and  _501
REMARK  212  A    between atoms: _503  and  _505
REMARK  213  A    between atoms: _505  and  _506
REMARK  214  A    between atoms: _505  and  _508
REMARK  215  A    between atoms: _508  and  _509
REMARK  216  A    between atoms: _512  and  _514
REMARK  217  A    between atoms: _514  and  _515
REMARK  218  A    between atoms: _514  and  _517
REMARK  219  A    between atoms: _517  and  _518
REMARK  220  A    between atoms: _520  and  _522
REMARK  221  A    between atoms: _522  and  _523
REMARK  222  A    between atoms: _522  and  _525
REMARK  223  A    between atoms: _525  and  _526
REMARK  224  A    between atoms: _531  and  _532
REMARK  225  A    between atoms: _534  and  _536
REMARK  226  A    between atoms: _536  and  _537
REMARK  227  A    between atoms: _536  and  _539
REMARK  228  A    between atoms: _539  and  _540
REMARK                            x       y       z     vdW  Elec       q    Type
REMARK                         _______ _______ _______ _____ _____    ______ ____
ROOT
ATOM      1  O   HOH     1      16.789  11.112  15.579  0.00  0.00    +0.000 OA
ENDROOT
TORSDOF 0
REMARK  Name = ../refined-set-2016/4qdk/4qdk_pocket.pdb
REMARK  228 active torsions:
REMARK  status: ('A' for Active; 'I' for Inactive)
REMARK    1  A    between atoms: _1  and  _3
REMARK    2  A    between atoms: _3  and  _4
REMARK    3  A    between atoms: _3  and  _6
REMARK    4  A    between atoms: _6  and  _7
REMARK    5  A    between atoms: _10  and  _12
REMARK    6  A    between atoms: _12  and  _13
REMARK    7  A    between atoms: _12  and  _15
REMARK    8  A    between atoms: _15  and  _16
REMARK    9  A    between atoms: _16  and  _17
REMARK   10  A    between atoms: _17  and  _18
REMARK   11  A    between atoms: _18  and  _19
REMARK   12  A    between atoms: _23  and  _25
REMARK   13  A    between atoms: _25  and  _26
REMARK   14  A    between atoms: _25  and  _28
REMARK   15  A    between atoms: _28  and  _29
REMARK   16  A    between atoms: _32  and  _34
REMARK   17  A    between atoms: _34  and  _35
REMARK   18  A    between atoms: _34  and  _37
REMARK   19  A    between atoms: _40  and  _42
REMARK   20  A    between atoms: _42  and  _43
REMARK   21  A    between atoms: _42  and  _45
REMARK   22  A    between atoms: _45  and  _46
REMARK   23  A    between atoms: _46  and  _47
REMARK   24  A    between atoms: _47  and  _48
REMARK   25  A    between atoms: _57  and  _59
REMARK   26  A    between atoms: _59  and  _60
REMARK   27  A    between atoms: _59  and  _62
REMARK   28  A    between atoms: _62  and  _63
REMARK   29  A    between atoms: _66  and  _68
REMARK   30  A    between atoms: _68  and  _69
REMARK   31  A    between atoms: _68  and  _71
REMARK   32  A    between atoms: _71  and  _72
REMARK   33  A    between atoms: _77  and  _78
REMARK   34  A    between atoms: _80  and  _82
REMARK   35  A    between atoms: _82  and  _83
REMARK   36  A    between atoms: _82  and  _85
REMARK   37  A    between atoms: _85  and  _86
REMARK   38  A    between atoms: _92  and  _94
REMARK   39  A    between atoms: _94  and  _95
REMARK   40  A    between atoms: _94  and  _97
REMARK   41  A    between atoms: _97  and  _98
REMARK   42  A    between atoms: _103  and  _105
REMARK   43  A    between atoms: _105  and  _106
REMARK   44  A    between atoms: _108  and  _110
REMARK   45  A    between atoms: _110  and  _111
REMARK   46  A    between atoms: _110  and  _113
REMARK   47  A    between atoms: _113  and  _114
REMARK   48  A    between atoms: _120  and  _122
REMARK   49  A    between atoms: _122  and  _123
REMARK   50  A    between atoms: _122  and  _125
REMARK   51  A    between atoms: _125  and  _126
REMARK   52  A    between atoms: _136  and  _138
REMARK   53  A    between atoms: _138  and  _139
REMARK   54  A    between atoms: _138  and  _141
REMARK   55  A    between atoms: _141  and  _142
REMARK   56  A    between atoms: _147  and  _148
REMARK   57  A    between atoms: _150  and  _152
REMARK   58  A    between atoms: _152  and  _153
REMARK   59  A    between atoms: _152  and  _155
REMARK   60  A    between atoms: _155  and  _156
REMARK   61  A    between atoms: _161  and  _163
REMARK   62  A    between atoms: _163  and  _164
REMARK   63  A    between atoms: _163  and  _166
REMARK   64  A    between atoms: _166  and  _167
REMARK   65  A    between atoms: _167  and  _168
REMARK   66  A    between atoms: _173  and  _175
REMARK   67  A    between atoms: _175  and  _176
REMARK   68  A    between atoms: _175  and  _178
REMARK   69  A    between atoms: _178  and  _179
REMARK   70  A    between atoms: _182  and  _184
REMARK   71  A    between atoms: _184  and  _185
REMARK   72  A    between atoms: _184  and  _187
REMARK   73  A    between atoms: _190  and  _192
REMARK   74  A    between atoms: _192  and  _193
REMARK   75  A    between atoms: _192  and  _195
REMARK   76  A    between atoms: _195  and  _196
REMARK   77  A    between atoms: _199  and  _201
REMARK   78  A    between atoms: _201  and  _202
REMARK   79  A    between atoms: _205  and  _207
REMARK   80  A    between atoms: _207  and  _208
REMARK   81  A    between atoms: _210  and  _212
REMARK   82  A    between atoms: _212  and  _213
REMARK   83  A    between atoms: _212  and  _215
REMARK   84  A    between atoms: _217  and  _219
REMARK   85  A    between atoms: _219  and  _220
REMARK   86  A    between atoms: _222  and  _224
REMARK   87  A    between atoms: _224  and  _225
REMARK   88  A    between atoms: _224  and  _227
REMARK   89  A    between atoms: _230  and  _232
REMARK   90  A    between atoms: _232  and  _233
REMARK   91  A    between atoms: _235  and  _237
REMARK   92  A    between atoms: _237  and  _238
REMARK   93  A    between atoms: _237  and  _240
REMARK   94  A    between atoms: _240  and  _241
REMARK   95  A    between atoms: _243  and  _245
REMARK   96  A    between atoms: _245  and  _246
REMARK   97  A    between atoms: _245  and  _248
REMARK   98  A    between atoms: _248  and  _249
REMARK   99  A    between atoms: _252  and  _254
REMARK  100  A    between atoms: _254  and  _255
REMARK  101  A    between atoms: _254  and  _257
REMARK  102  A    between atoms: _257  and  _258
REMARK  103  A    between atoms: _260  and  _262
REMARK  104  A    between atoms: _262  and  _263
REMARK  105  A    between atoms: _262  and  _265
REMARK  106  A    between atoms: _265  and  _266
REMARK  107  A    between atoms: _268  and  _270
REMARK  108  A    between atoms: _270  and  _271
REMARK  109  A    between atoms: _270  and  _273
REMARK  110  A    between atoms: _273  and  _274
REMARK  111  A    between atoms: _277  and  _279
REMARK  112  A    between atoms: _279  and  _280
REMARK  113  A    between atoms: _279  and  _282
REMARK  114  A    between atoms: _282  and  _283
REMARK  115  A    between atoms: _286  and  _288
REMARK  116  A    between atoms: _288  and  _289
REMARK  117  A    between atoms: _288  and  _291
REMARK  118  A    between atoms: _291  and  _292
REMARK  119  A    between atoms: _294  and  _296
REMARK  120  A    between atoms: _296  and  _297
REMARK  121  A    between atoms: _296  and  _299
REMARK  122  A    between atoms: _299  and  _300
REMARK  123  A    between atoms: _300  and  _301
REMARK  124  A    between atoms: _304  and  _306
REMARK  125  A    between atoms: _306  and  _307
REMARK  126  A    between atoms: _306  and  _309
REMARK  127  A    between atoms: _309  and  _310
REMARK  128  A    between atoms: _310  and  _311
REMARK  129  A    between atoms: _311  and  _312
REMARK  130  A    between atoms: _312  and  _313
REMARK  131  A    between atoms: _317  and  _319
REMARK  132  A    between atoms: _319  and  _320
REMARK  133  A    between atoms: _319  and  _322
REMARK  134  A    between atoms: _322  and  _323
REMARK  135  A    between atoms: _323  and  _324
REMARK  136  A    between atoms: _326  and  _328
REMARK  137  A    between atoms: _328  and  _329
REMARK  138  A    between atoms: _328  and  _331
REMARK  139  A    between atoms: _334  and  _336
REMARK  140  A    between atoms: _336  and  _337
REMARK  141  A    between atoms: _336  and  _339
REMARK  142  A    between atoms: _339  and  _340
REMARK  143  A    between atoms: _340  and  _341
REMARK  144  A    between atoms: _343  and  _345
REMARK  145  A    between atoms: _345  and  _346
REMARK  146  A    between atoms: _345  and  _348
REMARK  147  A    between atoms: _348  and  _349
REMARK  148  A    between atoms: _352  and  _354
REMARK  149  A    between atoms: _354  and  _355
REMARK  150  A    between atoms: _354  and  _357
REMARK  151  A    between atoms: _357  and  _358
REMARK  152  A    between atoms: _358  and  _359
REMARK  153  A    between atoms: _364  and  _366
REMARK  154  A    between atoms: _366  and  _367
REMARK  155  A    between atoms: _366  and  _369
REMARK  156  A    between atoms: _369  and  _370
REMARK  157  A    between atoms: _373  and  _375
REMARK  158  A    between atoms: _375  and  _376
REMARK  159  A    between atoms: _375  and  _378
REMARK  160  A    between atoms: _378  and  _379
REMARK  161  A    between atoms: _382  and  _384
REMARK  162  A    between atoms: _384  and  _385
REMARK  163  A    between atoms: _388  and  _390
REMARK  164  A    between atoms: _390  and  _391
REMARK  165  A    between atoms: _390  and  _393
REMARK  166  A    between atoms: _393  and  _394
REMARK  167  A    between atoms: _394  and  _395
REMARK  168  A    between atoms: _400  and  _402
REMARK  169  A    between atoms: _402  and  _403
REMARK  170  A    between atoms: _402  and  _405
REMARK  171  A    between atoms: _405  and  _406
REMARK  172  A    between atoms: _409  and  _411
REMARK  173  A    between atoms: _411  and  _412
REMARK  174  A    between atoms: _411  and  _414
REMARK  175  A    between atoms: _414  and  _415
REMARK  176  A    between atoms: _418  and  _420
REMARK  177  A    between atoms: _420  and  _421
REMARK  178  A    between atoms: _420  and  _423
REMARK  179  A    between atoms: _425  and  _427
REMARK  180  A    between atoms: _427  and  _428
REMARK  181  A    between atoms: _427  and  _430
REMARK  182  A    between atoms: _430  and  _431
REMARK  183  A    between atoms: _434  and  _436
REMARK  184  A    between atoms: _436  and  _437
REMARK  185  A    between atoms: _436  and  _439
REMARK  186  A    between atoms: _439  and  _440
REMARK  187  A    between atoms: _443  and  _445
REMARK  188  A    between atoms: _445  and  _446
REMARK  189  A    between atoms: _445  and  _448
REMARK  190  A    between atoms: _451  and  _453
REMARK  191  A    between atoms: _453  and  _454
REMARK  192  A    between atoms: _453  and  _456
REMARK  193  A    between atoms: _456  and  _457
REMARK  194  A    between atoms: _460  and  _462
REMARK  195  A    between atoms: _462  and  _463
REMARK  196  A    between atoms: _462  and  _465
REMARK  197  A    between atoms: _465  and  _466
REMARK  198  A    between atoms: _469  and  _471
REMARK  199  A    between atoms: _471  and  _472
REMARK  200  A    between atoms: _471  and  _474
REMARK  201  A    between atoms: _474  and  _475
REMARK  202  A    between atoms: _480  and  _482
REMARK  203  A    between atoms: _482  and  _483
REMARK  204  A    between atoms: _482  and  _485
REMARK  205  A    between atoms: _485  and  _486
REMARK  206  A    between atoms: _491  and  _492
REMARK  207  A    between atoms: _494  and  _496
REMARK  208  A    between atoms: _496  and  _497
REMARK  209  A    between atoms: _496  and  _499
REMARK  210  A    between atoms: _499  and  _500
REMARK  211  A    between atoms: _500  and  _501
REMARK  212  A    between atoms: _503  and  _505
REMARK  213  A    between atoms: _505  and  _506
REMARK  214  A    between atoms: _505  and  _508
REMARK  215  A    between atoms: _508  and  _509
REMARK  216  A    between atoms: _512  and  _514
REMARK  217  A    between atoms: _514  and  _515
REMARK  218  A    between atoms: _514  and  _517
REMARK  219  A    between atoms: _517  and  _518
REMARK  220  A    between atoms: _520  and  _522
REMARK  221  A    between atoms: _522  and  _523
REMARK  222  A    between atoms: _522  and  _525
REMARK  223  A    between atoms: _525  and  _526
REMARK  224  A    between atoms: _531  and  _532
REMARK  225  A    between atoms: _534  and  _536
REMARK  226  A    between atoms: _536  and  _537
REMARK  227  A    between atoms: _536  and  _539
REMARK  228  A    between atoms: _539  and  _540
REMARK                            x       y       z     vdW  Elec       q    Type
REMARK                         _______ _______ _______ _____ _____    ______ ____
ROOT
ATOM      1  O   HOH     1      17.717  11.650  13.198  0.00  0.00    +0.000 OA
ENDROOT
TORSDOF 0
REMARK  Name = ../refined-set-2016/4qdk/4qdk_pocket.pdb
REMARK  228 active torsions:
REMARK  status: ('A' for Active; 'I' for Inactive)
REMARK    1  A    between atoms: _1  and  _3
REMARK    2  A    between atoms: _3  and  _4
REMARK    3  A    between atoms: _3  and  _6
REMARK    4  A    between atoms: _6  and  _7
REMARK    5  A    between atoms: _10  and  _12
REMARK    6  A    between atoms: _12  and  _13
REMARK    7  A    between atoms: _12  and  _15
REMARK    8  A    between atoms: _15  and  _16
REMARK    9  A    between atoms: _16  and  _17
REMARK   10  A    between atoms: _17  and  _18
REMARK   11  A    between atoms: _18  and  _19
REMARK   12  A    between atoms: _23  and  _25
REMARK   13  A    between atoms: _25  and  _26
REMARK   14  A    between atoms: _25  and  _28
REMARK   15  A    between atoms: _28  and  _29
REMARK   16  A    between atoms: _32  and  _34
REMARK   17  A    between atoms: _34  and  _35
REMARK   18  A    between atoms: _34  and  _37
REMARK   19  A    between atoms: _40  and  _42
REMARK   20  A    between atoms: _42  and  _43
REMARK   21  A    between atoms: _42  and  _45
REMARK   22  A    between atoms: _45  and  _46
REMARK   23  A    between atoms: _46  and  _47
REMARK   24  A    between atoms: _47  and  _48
REMARK   25  A    between atoms: _57  and  _59
REMARK   26  A    between atoms: _59  and  _60
REMARK   27  A    between atoms: _59  and  _62
REMARK   28  A    between atoms: _62  and  _63
REMARK   29  A    between atoms: _66  and  _68
REMARK   30  A    between atoms: _68  and  _69
REMARK   31  A    between atoms: _68  and  _71
REMARK   32  A    between atoms: _71  and  _72
REMARK   33  A    between atoms: _77  and  _78
REMARK   34  A    between atoms: _80  and  _82
REMARK   35  A    between atoms: _82  and  _83
REMARK   36  A    between atoms: _82  and  _85
REMARK   37  A    between atoms: _85  and  _86
REMARK   38  A    between atoms: _92  and  _94
REMARK   39  A    between atoms: _94  and  _95
REMARK   40  A    between atoms: _94  and  _97
REMARK   41  A    between atoms: _97  and  _98
REMARK   42  A    between atoms: _103  and  _105
REMARK   43  A    between atoms: _105  and  _106
REMARK   44  A    between atoms: _108  and  _110
REMARK   45  A    between atoms: _110  and  _111
REMARK   46  A    between atoms: _110  and  _113
REMARK   47  A    between atoms: _113  and  _114
REMARK   48  A    between atoms: _120  and  _122
REMARK   49  A    between atoms: _122  and  _123
REMARK   50  A    between atoms: _122  and  _125
REMARK   51  A    between atoms: _125  and  _126
REMARK   52  A    between atoms: _136  and  _138
REMARK   53  A    between atoms: _138  and  _139
REMARK   54  A    between atoms: _138  and  _141
REMARK   55  A    between atoms: _141  and  _142
REMARK   56  A    between atoms: _147  and  _148
REMARK   57  A    between atoms: _150  and  _152
REMARK   58  A    between atoms: _152  and  _153
REMARK   59  A    between atoms: _152  and  _155
REMARK   60  A    between atoms: _155  and  _156
REMARK   61  A    between atoms: _161  and  _163
REMARK   62  A    between atoms: _163  and  _164
REMARK   63  A    between atoms: _163  and  _166
REMARK   64  A    between atoms: _166  and  _167
REMARK   65  A    between atoms: _167  and  _168
REMARK   66  A    between atoms: _173  and  _175
REMARK   67  A    between atoms: _175  and  _176
REMARK   68  A    between atoms: _175  and  _178
REMARK   69  A    between atoms: _178  and  _179
REMARK   70  A    between atoms: _182  and  _184
REMARK   71  A    between atoms: _184  and  _185
REMARK   72  A    between atoms: _184  and  _187
REMARK   73  A    between atoms: _190  and  _192
REMARK   74  A    between atoms: _192  and  _193
REMARK   75  A    between atoms: _192  and  _195
REMARK   76  A    between atoms: _195  and  _196
REMARK   77  A    between atoms: _199  and  _201
REMARK   78  A    between atoms: _201  and  _202
REMARK   79  A    between atoms: _205  and  _207
REMARK   80  A    between atoms: _207  and  _208
REMARK   81  A    between atoms: _210  and  _212
REMARK   82  A    between atoms: _212  and  _213
REMARK   83  A    between atoms: _212  and  _215
REMARK   84  A    between atoms: _217  and  _219
REMARK   85  A    between atoms: _219  and  _220
REMARK   86  A    between atoms: _222  and  _224
REMARK   87  A    between atoms: _224  and  _225
REMARK   88  A    between atoms: _224  and  _227
REMARK   89  A    between atoms: _230  and  _232
REMARK   90  A    between atoms: _232  and  _233
REMARK   91  A    between atoms: _235  and  _237
REMARK   92  A    between atoms: _237  and  _238
REMARK   93  A    between atoms: _237  and  _240
REMARK   94  A    between atoms: _240  and  _241
REMARK   95  A    between atoms: _243  and  _245
REMARK   96  A    between atoms: _245  and  _246
REMARK   97  A    between atoms: _245  and  _248
REMARK   98  A    between atoms: _248  and  _249
REMARK   99  A    between atoms: _252  and  _254
REMARK  100  A    between atoms: _254  and  _255
REMARK  101  A    between atoms: _254  and  _257
REMARK  102  A    between atoms: _257  and  _258
REMARK  103  A    between atoms: _260  and  _262
REMARK  104  A    between atoms: _262  and  _263
REMARK  105  A    between atoms: _262  and  _265
REMARK  106  A    between atoms: _265  and  _266
REMARK  107  A    between atoms: _268  and  _270
REMARK  108  A    between atoms: _270  and  _271
REMARK  109  A    between atoms: _270  and  _273
REMARK  110  A    between atoms: _273  and  _274
REMARK  111  A    between atoms: _277  and  _279
REMARK  112  A    between atoms: _279  and  _280
REMARK  113  A    between atoms: _279  and  _282
REMARK  114  A    between atoms: _282  and  _283
REMARK  115  A    between atoms: _286  and  _288
REMARK  116  A    between atoms: _288  and  _289
REMARK  117  A    between atoms: _288  and  _291
REMARK  118  A    between atoms: _291  and  _292
REMARK  119  A    between atoms: _294  and  _296
REMARK  120  A    between atoms: _296  and  _297
REMARK  121  A    between atoms: _296  and  _299
REMARK  122  A    between atoms: _299  and  _300
REMARK  123  A    between atoms: _300  and  _301
REMARK  124  A    between atoms: _304  and  _306
REMARK  125  A    between atoms: _306  and  _307
REMARK  126  A    between atoms: _306  and  _309
REMARK  127  A    between atoms: _309  and  _310
REMARK  128  A    between atoms: _310  and  _311
REMARK  129  A    between atoms: _311  and  _312
REMARK  130  A    between atoms: _312  and  _313
REMARK  131  A    between atoms: _317  and  _319
REMARK  132  A    between atoms: _319  and  _320
REMARK  133  A    between atoms: _319  and  _322
REMARK  134  A    between atoms: _322  and  _323
REMARK  135  A    between atoms: _323  and  _324
REMARK  136  A    between atoms: _326  and  _328
REMARK  137  A    between atoms: _328  and  _329
REMARK  138  A    between atoms: _328  and  _331
REMARK  139  A    between atoms: _334  and  _336
REMARK  140  A    between atoms: _336  and  _337
REMARK  141  A    between atoms: _336  and  _339
REMARK  142  A    between atoms: _339  and  _340
REMARK  143  A    between atoms: _340  and  _341
REMARK  144  A    between atoms: _343  and  _345
REMARK  145  A    between atoms: _345  and  _346
REMARK  146  A    between atoms: _345  and  _348
REMARK  147  A    between atoms: _348  and  _349
REMARK  148  A    between atoms: _352  and  _354
REMARK  149  A    between atoms: _354  and  _355
REMARK  150  A    between atoms: _354  and  _357
REMARK  151  A    between atoms: _357  and  _358
REMARK  152  A    between atoms: _358  and  _359
REMARK  153  A    between atoms: _364  and  _366
REMARK  154  A    between atoms: _366  and  _367
REMARK  155  A    between atoms: _366  and  _369
REMARK  156  A    between atoms: _369  and  _370
REMARK  157  A    between atoms: _373  and  _375
REMARK  158  A    between atoms: _375  and  _376
REMARK  159  A    between atoms: _375  and  _378
REMARK  160  A    between atoms: _378  and  _379
REMARK  161  A    between atoms: _382  and  _384
REMARK  162  A    between atoms: _384  and  _385
REMARK  163  A    between atoms: _388  and  _390
REMARK  164  A    between atoms: _390  and  _391
REMARK  165  A    between atoms: _390  and  _393
REMARK  166  A    between atoms: _393  and  _394
REMARK  167  A    between atoms: _394  and  _395
REMARK  168  A    between atoms: _400  and  _402
REMARK  169  A    between atoms: _402  and  _403
REMARK  170  A    between atoms: _402  and  _405
REMARK  171  A    between atoms: _405  and  _406
REMARK  172  A    between atoms: _409  and  _411
REMARK  173  A    between atoms: _411  and  _412
REMARK  174  A    between atoms: _411  and  _414
REMARK  175  A    between atoms: _414  and  _415
REMARK  176  A    between atoms: _418  and  _420
REMARK  177  A    between atoms: _420  and  _421
REMARK  178  A    between atoms: _420  and  _423
REMARK  179  A    between atoms: _425  and  _427
REMARK  180  A    between atoms: _427  and  _428
REMARK  181  A    between atoms: _427  and  _430
REMARK  182  A    between atoms: _430  and  _431
REMARK  183  A    between atoms: _434  and  _436
REMARK  184  A    between atoms: _436  and  _437
REMARK  185  A    between atoms: _436  and  _439
REMARK  186  A    between atoms: _439  and  _440
REMARK  187  A    between atoms: _443  and  _445
REMARK  188  A    between atoms: _445  and  _446
REMARK  189  A    between atoms: _445  and  _448
REMARK  190  A    between atoms: _451  and  _453
REMARK  191  A    between atoms: _453  and  _454
REMARK  192  A    between atoms: _453  and  _456
REMARK  193  A    between atoms: _456  and  _457
REMARK  194  A    between atoms: _460  and  _462
REMARK  195  A    between atoms: _462  and  _463
REMARK  196  A    between atoms: _462  and  _465
REMARK  197  A    between atoms: _465  and  _466
REMARK  198  A    between atoms: _469  and  _471
REMARK  199  A    between atoms: _471  and  _472
REMARK  200  A    between atoms: _471  and  _474
REMARK  201  A    between atoms: _474  and  _475
REMARK  202  A    between atoms: _480  and  _482
REMARK  203  A    between atoms: _482  and  _483
REMARK  204  A    between atoms: _482  and  _485
REMARK  205  A    between atoms: _485  and  _486
REMARK  206  A    between atoms: _491  and  _492
REMARK  207  A    between atoms: _494  and  _496
REMARK  208  A    between atoms: _496  and  _497
REMARK  209  A    between atoms: _496  and  _499
REMARK  210  A    between atoms: _499  and  _500
REMARK  211  A    between atoms: _500  and  _501
REMARK  212  A    between atoms: _503  and  _505
REMARK  213  A    between atoms: _505  and  _506
REMARK  214  A    between atoms: _505  and  _508
REMARK  215  A    between atoms: _508  and  _509
REMARK  216  A    between atoms: _512  and  _514
REMARK  217  A    between atoms: _514  and  _515
REMARK  218  A    between atoms: _514  and  _517
REMARK  219  A    between atoms: _517  and  _518
REMARK  220  A    between atoms: _520  and  _522
REMARK  221  A    between atoms: _522  and  _523
REMARK  222  A    between atoms: _522  and  _525
REMARK  223  A    between atoms: _525  and  _526
REMARK  224  A    between atoms: _531  and  _532
REMARK  225  A    between atoms: _534  and  _536
REMARK  226  A    between atoms: _536  and  _537
REMARK  227  A    between atoms: _536  and  _539
REMARK  228  A    between atoms: _539  and  _540
REMARK                            x       y       z     vdW  Elec       q    Type
REMARK                         _______ _______ _______ _____ _____    ______ ____
ROOT
ATOM      1  O   HOH     1      16.130  -3.177  -0.539  0.00  0.00    +0.000 OA
ENDROOT
TORSDOF 0
REMARK  Name = ../refined-set-2016/4qdk/4qdk_pocket.pdb
REMARK  228 active torsions:
REMARK  status: ('A' for Active; 'I' for Inactive)
REMARK    1  A    between atoms: _1  and  _3
REMARK    2  A    between atoms: _3  and  _4
REMARK    3  A    between atoms: _3  and  _6
REMARK    4  A    between atoms: _6  and  _7
REMARK    5  A    between atoms: _10  and  _12
REMARK    6  A    between atoms: _12  and  _13
REMARK    7  A    between atoms: _12  and  _15
REMARK    8  A    between atoms: _15  and  _16
REMARK    9  A    between atoms: _16  and  _17
REMARK   10  A    between atoms: _17  and  _18
REMARK   11  A    between atoms: _18  and  _19
REMARK   12  A    between atoms: _23  and  _25
REMARK   13  A    between atoms: _25  and  _26
REMARK   14  A    between atoms: _25  and  _28
REMARK   15  A    between atoms: _28  and  _29
REMARK   16  A    between atoms: _32  and  _34
REMARK   17  A    between atoms: _34  and  _35
REMARK   18  A    between atoms: _34  and  _37
REMARK   19  A    between atoms: _40  and  _42
REMARK   20  A    between atoms: _42  and  _43
REMARK   21  A    between atoms: _42  and  _45
REMARK   22  A    between atoms: _45  and  _46
REMARK   23  A    between atoms: _46  and  _47
REMARK   24  A    between atoms: _47  and  _48
REMARK   25  A    between atoms: _57  and  _59
REMARK   26  A    between atoms: _59  and  _60
REMARK   27  A    between atoms: _59  and  _62
REMARK   28  A    between atoms: _62  and  _63
REMARK   29  A    between atoms: _66  and  _68
REMARK   30  A    between atoms: _68  and  _69
REMARK   31  A    between atoms: _68  and  _71
REMARK   32  A    between atoms: _71  and  _72
REMARK   33  A    between atoms: _77  and  _78
REMARK   34  A    between atoms: _80  and  _82
REMARK   35  A    between atoms: _82  and  _83
REMARK   36  A    between atoms: _82  and  _85
REMARK   37  A    between atoms: _85  and  _86
REMARK   38  A    between atoms: _92  and  _94
REMARK   39  A    between atoms: _94  and  _95
REMARK   40  A    between atoms: _94  and  _97
REMARK   41  A    between atoms: _97  and  _98
REMARK   42  A    between atoms: _103  and  _105
REMARK   43  A    between atoms: _105  and  _106
REMARK   44  A    between atoms: _108  and  _110
REMARK   45  A    between atoms: _110  and  _111
REMARK   46  A    between atoms: _110  and  _113
REMARK   47  A    between atoms: _113  and  _114
REMARK   48  A    between atoms: _120  and  _122
REMARK   49  A    between atoms: _122  and  _123
REMARK   50  A    between atoms: _122  and  _125
REMARK   51  A    between atoms: _125  and  _126
REMARK   52  A    between atoms: _136  and  _138
REMARK   53  A    between atoms: _138  and  _139
REMARK   54  A    between atoms: _138  and  _141
REMARK   55  A    between atoms: _141  and  _142
REMARK   56  A    between atoms: _147  and  _148
REMARK   57  A    between atoms: _150  and  _152
REMARK   58  A    between atoms: _152  and  _153
REMARK   59  A    between atoms: _152  and  _155
REMARK   60  A    between atoms: _155  and  _156
REMARK   61  A    between atoms: _161  and  _163
REMARK   62  A    between atoms: _163  and  _164
REMARK   63  A    between atoms: _163  and  _166
REMARK   64  A    between atoms: _166  and  _167
REMARK   65  A    between atoms: _167  and  _168
REMARK   66  A    between atoms: _173  and  _175
REMARK   67  A    between atoms: _175  and  _176
REMARK   68  A    between atoms: _175  and  _178
REMARK   69  A    between atoms: _178  and  _179
REMARK   70  A    between atoms: _182  and  _184
REMARK   71  A    between atoms: _184  and  _185
REMARK   72  A    between atoms: _184  and  _187
REMARK   73  A    between atoms: _190  and  _192
REMARK   74  A    between atoms: _192  and  _193
REMARK   75  A    between atoms: _192  and  _195
REMARK   76  A    between atoms: _195  and  _196
REMARK   77  A    between atoms: _199  and  _201
REMARK   78  A    between atoms: _201  and  _202
REMARK   79  A    between atoms: _205  and  _207
REMARK   80  A    between atoms: _207  and  _208
REMARK   81  A    between atoms: _210  and  _212
REMARK   82  A    between atoms: _212  and  _213
REMARK   83  A    between atoms: _212  and  _215
REMARK   84  A    between atoms: _217  and  _219
REMARK   85  A    between atoms: _219  and  _220
REMARK   86  A    between atoms: _222  and  _224
REMARK   87  A    between atoms: _224  and  _225
REMARK   88  A    between atoms: _224  and  _227
REMARK   89  A    between atoms: _230  and  _232
REMARK   90  A    between atoms: _232  and  _233
REMARK   91  A    between atoms: _235  and  _237
REMARK   92  A    between atoms: _237  and  _238
REMARK   93  A    between atoms: _237  and  _240
REMARK   94  A    between atoms: _240  and  _241
REMARK   95  A    between atoms: _243  and  _245
REMARK   96  A    between atoms: _245  and  _246
REMARK   97  A    between atoms: _245  and  _248
REMARK   98  A    between atoms: _248  and  _249
REMARK   99  A    between atoms: _252  and  _254
REMARK  100  A    between atoms: _254  and  _255
REMARK  101  A    between atoms: _254  and  _257
REMARK  102  A    between atoms: _257  and  _258
REMARK  103  A    between atoms: _260  and  _262
REMARK  104  A    between atoms: _262  and  _263
REMARK  105  A    between atoms: _262  and  _265
REMARK  106  A    between atoms: _265  and  _266
REMARK  107  A    between atoms: _268  and  _270
REMARK  108  A    between atoms: _270  and  _271
REMARK  109  A    between atoms: _270  and  _273
REMARK  110  A    between atoms: _273  and  _274
REMARK  111  A    between atoms: _277  and  _279
REMARK  112  A    between atoms: _279  and  _280
REMARK  113  A    between atoms: _279  and  _282
REMARK  114  A    between atoms: _282  and  _283
REMARK  115  A    between atoms: _286  and  _288
REMARK  116  A    between atoms: _288  and  _289
REMARK  117  A    between atoms: _288  and  _291
REMARK  118  A    between atoms: _291  and  _292
REMARK  119  A    between atoms: _294  and  _296
REMARK  120  A    between atoms: _296  and  _297
REMARK  121  A    between atoms: _296  and  _299
REMARK  122  A    between atoms: _299  and  _300
REMARK  123  A    between atoms: _300  and  _301
REMARK  124  A    between atoms: _304  and  _306
REMARK  125  A    between atoms: _306  and  _307
REMARK  126  A    between atoms: _306  and  _309
REMARK  127  A    between atoms: _309  and  _310
REMARK  128  A    between atoms: _310  and  _311
REMARK  129  A    between atoms: _311  and  _312
REMARK  130  A    between atoms: _312  and  _313
REMARK  131  A    between atoms: _317  and  _319
REMARK  132  A    between atoms: _319  and  _320
REMARK  133  A    between atoms: _319  and  _322
REMARK  134  A    between atoms: _322  and  _323
REMARK  135  A    between atoms: _323  and  _324
REMARK  136  A    between atoms: _326  and  _328
REMARK  137  A    between atoms: _328  and  _329
REMARK  138  A    between atoms: _328  and  _331
REMARK  139  A    between atoms: _334  and  _336
REMARK  140  A    between atoms: _336  and  _337
REMARK  141  A    between atoms: _336  and  _339
REMARK  142  A    between atoms: _339  and  _340
REMARK  143  A    between atoms: _340  and  _341
REMARK  144  A    between atoms: _343  and  _345
REMARK  145  A    between atoms: _345  and  _346
REMARK  146  A    between atoms: _345  and  _348
REMARK  147  A    between atoms: _348  and  _349
REMARK  148  A    between atoms: _352  and  _354
REMARK  149  A    between atoms: _354  and  _355
REMARK  150  A    between atoms: _354  and  _357
REMARK  151  A    between atoms: _357  and  _358
REMARK  152  A    between atoms: _358  and  _359
REMARK  153  A    between atoms: _364  and  _366
REMARK  154  A    between atoms: _366  and  _367
REMARK  155  A    between atoms: _366  and  _369
REMARK  156  A    between atoms: _369  and  _370
REMARK  157  A    between atoms: _373  and  _375
REMARK  158  A    between atoms: _375  and  _376
REMARK  159  A    between atoms: _375  and  _378
REMARK  160  A    between atoms: _378  and  _379
REMARK  161  A    between atoms: _382  and  _384
REMARK  162  A    between atoms: _384  and  _385
REMARK  163  A    between atoms: _388  and  _390
REMARK  164  A    between atoms: _390  and  _391
REMARK  165  A    between atoms: _390  and  _393
REMARK  166  A    between atoms: _393  and  _394
REMARK  167  A    between atoms: _394  and  _395
REMARK  168  A    between atoms: _400  and  _402
REMARK  169  A    between atoms: _402  and  _403
REMARK  170  A    between atoms: _402  and  _405
REMARK  171  A    between atoms: _405  and  _406
REMARK  172  A    between atoms: _409  and  _411
REMARK  173  A    between atoms: _411  and  _412
REMARK  174  A    between atoms: _411  and  _414
REMARK  175  A    between atoms: _414  and  _415
REMARK  176  A    between atoms: _418  and  _420
REMARK  177  A    between atoms: _420  and  _421
REMARK  178  A    between atoms: _420  and  _423
REMARK  179  A    between atoms: _425  and  _427
REMARK  180  A    between atoms: _427  and  _428
REMARK  181  A    between atoms: _427  and  _430
REMARK  182  A    between atoms: _430  and  _431
REMARK  183  A    between atoms: _434  and  _436
REMARK  184  A    between atoms: _436  and  _437
REMARK  185  A    between atoms: _436  and  _439
REMARK  186  A    between atoms: _439  and  _440
REMARK  187  A    between atoms: _443  and  _445
REMARK  188  A    between atoms: _445  and  _446
REMARK  189  A    between atoms: _445  and  _448
REMARK  190  A    between atoms: _451  and  _453
REMARK  191  A    between atoms: _453  and  _454
REMARK  192  A    between atoms: _453  and  _456
REMARK  193  A    between atoms: _456  and  _457
REMARK  194  A    between atoms: _460  and  _462
REMARK  195  A    between atoms: _462  and  _463
REMARK  196  A    between atoms: _462  and  _465
REMARK  197  A    between atoms: _465  and  _466
REMARK  198  A    between atoms: _469  and  _471
REMARK  199  A    between atoms: _471  and  _472
REMARK  200  A    between atoms: _471  and  _474
REMARK  201  A    between atoms: _474  and  _475
REMARK  202  A    between atoms: _480  and  _482
REMARK  203  A    between atoms: _482  and  _483
REMARK  204  A    between atoms: _482  and  _485
REMARK  205  A    between atoms: _485  and  _486
REMARK  206  A    between atoms: _491  and  _492
REMARK  207  A    between atoms: _494  and  _496
REMARK  208  A    between atoms: _496  and  _497
REMARK  209  A    between atoms: _496  and  _499
REMARK  210  A    between atoms: _499  and  _500
REMARK  211  A    between atoms: _500  and  _501
REMARK  212  A    between atoms: _503  and  _505
REMARK  213  A    between atoms: _505  and  _506
REMARK  214  A    between atoms: _505  and  _508
REMARK  215  A    between atoms: _508  and  _509
REMARK  216  A    between atoms: _512  and  _514
REMARK  217  A    between atoms: _514  and  _515
REMARK  218  A    between atoms: _514  and  _517
REMARK  219  A    between atoms: _517  and  _518
REMARK  220  A    between atoms: _520  and  _522
REMARK  221  A    between atoms: _522  and  _523
REMARK  222  A    between atoms: _522  and  _525
REMARK  223  A    between atoms: _525  and  _526
REMARK  224  A    between atoms: _531  and  _532
REMARK  225  A    between atoms: _534  and  _536
REMARK  226  A    between atoms: _536  and  _537
REMARK  227  A    between atoms: _536  and  _539
REMARK  228  A    between atoms: _539  and  _540
REMARK                            x       y       z     vdW  Elec       q    Type
REMARK                         _______ _______ _______ _____ _____    ______ ____
ROOT
ATOM      1  O   HOH     1      12.234   0.355   0.017  0.00  0.00    +0.000 OA
ENDROOT
TORSDOF 0
REMARK  Name = ../refined-set-2016/4qdk/4qdk_pocket.pdb
REMARK  228 active torsions:
REMARK  status: ('A' for Active; 'I' for Inactive)
REMARK    1  A    between atoms: _1  and  _3
REMARK    2  A    between atoms: _3  and  _4
REMARK    3  A    between atoms: _3  and  _6
REMARK    4  A    between atoms: _6  and  _7
REMARK    5  A    between atoms: _10  and  _12
REMARK    6  A    between atoms: _12  and  _13
REMARK    7  A    between atoms: _12  and  _15
REMARK    8  A    between atoms: _15  and  _16
REMARK    9  A    between atoms: _16  and  _17
REMARK   10  A    between atoms: _17  and  _18
REMARK   11  A    between atoms: _18  and  _19
REMARK   12  A    between atoms: _23  and  _25
REMARK   13  A    between atoms: _25  and  _26
REMARK   14  A    between atoms: _25  and  _28
REMARK   15  A    between atoms: _28  and  _29
REMARK   16  A    between atoms: _32  and  _34
REMARK   17  A    between atoms: _34  and  _35
REMARK   18  A    between atoms: _34  and  _37
REMARK   19  A    between atoms: _40  and  _42
REMARK   20  A    between atoms: _42  and  _43
REMARK   21  A    between atoms: _42  and  _45
REMARK   22  A    between atoms: _45  and  _46
REMARK   23  A    between atoms: _46  and  _47
REMARK   24  A    between atoms: _47  and  _48
REMARK   25  A    between atoms: _57  and  _59
REMARK   26  A    between atoms: _59  and  _60
REMARK   27  A    between atoms: _59  and  _62
REMARK   28  A    between atoms: _62  and  _63
REMARK   29  A    between atoms: _66  and  _68
REMARK   30  A    between atoms: _68  and  _69
REMARK   31  A    between atoms: _68  and  _71
REMARK   32  A    between atoms: _71  and  _72
REMARK   33  A    between atoms: _77  and  _78
REMARK   34  A    between atoms: _80  and  _82
REMARK   35  A    between atoms: _82  and  _83
REMARK   36  A    between atoms: _82  and  _85
REMARK   37  A    between atoms: _85  and  _86
REMARK   38  A    between atoms: _92  and  _94
REMARK   39  A    between atoms: _94  and  _95
REMARK   40  A    between atoms: _94  and  _97
REMARK   41  A    between atoms: _97  and  _98
REMARK   42  A    between atoms: _103  and  _105
REMARK   43  A    between atoms: _105  and  _106
REMARK   44  A    between atoms: _108  and  _110
REMARK   45  A    between atoms: _110  and  _111
REMARK   46  A    between atoms: _110  and  _113
REMARK   47  A    between atoms: _113  and  _114
REMARK   48  A    between atoms: _120  and  _122
REMARK   49  A    between atoms: _122  and  _123
REMARK   50  A    between atoms: _122  and  _125
REMARK   51  A    between atoms: _125  and  _126
REMARK   52  A    between atoms: _136  and  _138
REMARK   53  A    between atoms: _138  and  _139
REMARK   54  A    between atoms: _138  and  _141
REMARK   55  A    between atoms: _141  and  _142
REMARK   56  A    between atoms: _147  and  _148
REMARK   57  A    between atoms: _150  and  _152
REMARK   58  A    between atoms: _152  and  _153
REMARK   59  A    between atoms: _152  and  _155
REMARK   60  A    between atoms: _155  and  _156
REMARK   61  A    between atoms: _161  and  _163
REMARK   62  A    between atoms: _163  and  _164
REMARK   63  A    between atoms: _163  and  _166
REMARK   64  A    between atoms: _166  and  _167
REMARK   65  A    between atoms: _167  and  _168
REMARK   66  A    between atoms: _173  and  _175
REMARK   67  A    between atoms: _175  and  _176
REMARK   68  A    between atoms: _175  and  _178
REMARK   69  A    between atoms: _178  and  _179
REMARK   70  A    between atoms: _182  and  _184
REMARK   71  A    between atoms: _184  and  _185
REMARK   72  A    between atoms: _184  and  _187
REMARK   73  A    between atoms: _190  and  _192
REMARK   74  A    between atoms: _192  and  _193
REMARK   75  A    between atoms: _192  and  _195
REMARK   76  A    between atoms: _195  and  _196
REMARK   77  A    between atoms: _199  and  _201
REMARK   78  A    between atoms: _201  and  _202
REMARK   79  A    between atoms: _205  and  _207
REMARK   80  A    between atoms: _207  and  _208
REMARK   81  A    between atoms: _210  and  _212
REMARK   82  A    between atoms: _212  and  _213
REMARK   83  A    between atoms: _212  and  _215
REMARK   84  A    between atoms: _217  and  _219
REMARK   85  A    between atoms: _219  and  _220
REMARK   86  A    between atoms: _222  and  _224
REMARK   87  A    between atoms: _224  and  _225
REMARK   88  A    between atoms: _224  and  _227
REMARK   89  A    between atoms: _230  and  _232
REMARK   90  A    between atoms: _232  and  _233
REMARK   91  A    between atoms: _235  and  _237
REMARK   92  A    between atoms: _237  and  _238
REMARK   93  A    between atoms: _237  and  _240
REMARK   94  A    between atoms: _240  and  _241
REMARK   95  A    between atoms: _243  and  _245
REMARK   96  A    between atoms: _245  and  _246
REMARK   97  A    between atoms: _245  and  _248
REMARK   98  A    between atoms: _248  and  _249
REMARK   99  A    between atoms: _252  and  _254
REMARK  100  A    between atoms: _254  and  _255
REMARK  101  A    between atoms: _254  and  _257
REMARK  102  A    between atoms: _257  and  _258
REMARK  103  A    between atoms: _260  and  _262
REMARK  104  A    between atoms: _262  and  _263
REMARK  105  A    between atoms: _262  and  _265
REMARK  106  A    between atoms: _265  and  _266
REMARK  107  A    between atoms: _268  and  _270
REMARK  108  A    between atoms: _270  and  _271
REMARK  109  A    between atoms: _270  and  _273
REMARK  110  A    between atoms: _273  and  _274
REMARK  111  A    between atoms: _277  and  _279
REMARK  112  A    between atoms: _279  and  _280
REMARK  113  A    between atoms: _279  and  _282
REMARK  114  A    between atoms: _282  and  _283
REMARK  115  A    between atoms: _286  and  _288
REMARK  116  A    between atoms: _288  and  _289
REMARK  117  A    between atoms: _288  and  _291
REMARK  118  A    between atoms: _291  and  _292
REMARK  119  A    between atoms: _294  and  _296
REMARK  120  A    between atoms: _296  and  _297
REMARK  121  A    between atoms: _296  and  _299
REMARK  122  A    between atoms: _299  and  _300
REMARK  123  A    between atoms: _300  and  _301
REMARK  124  A    between atoms: _304  and  _306
REMARK  125  A    between atoms: _306  and  _307
REMARK  126  A    between atoms: _306  and  _309
REMARK  127  A    between atoms: _309  and  _310
REMARK  128  A    between atoms: _310  and  _311
REMARK  129  A    between atoms: _311  and  _312
REMARK  130  A    between atoms: _312  and  _313
REMARK  131  A    between atoms: _317  and  _319
REMARK  132  A    between atoms: _319  and  _320
REMARK  133  A    between atoms: _319  and  _322
REMARK  134  A    between atoms: _322  and  _323
REMARK  135  A    between atoms: _323  and  _324
REMARK  136  A    between atoms: _326  and  _328
REMARK  137  A    between atoms: _328  and  _329
REMARK  138  A    between atoms: _328  and  _331
REMARK  139  A    between atoms: _334  and  _336
REMARK  140  A    between atoms: _336  and  _337
REMARK  141  A    between atoms: _336  and  _339
REMARK  142  A    between atoms: _339  and  _340
REMARK  143  A    between atoms: _340  and  _341
REMARK  144  A    between atoms: _343  and  _345
REMARK  145  A    between atoms: _345  and  _346
REMARK  146  A    between atoms: _345  and  _348
REMARK  147  A    between atoms: _348  and  _349
REMARK  148  A    between atoms: _352  and  _354
REMARK  149  A    between atoms: _354  and  _355
REMARK  150  A    between atoms: _354  and  _357
REMARK  151  A    between atoms: _357  and  _358
REMARK  152  A    between atoms: _358  and  _359
REMARK  153  A    between atoms: _364  and  _366
REMARK  154  A    between atoms: _366  and  _367
REMARK  155  A    between atoms: _366  and  _369
REMARK  156  A    between atoms: _369  and  _370
REMARK  157  A    between atoms: _373  and  _375
REMARK  158  A    between atoms: _375  and  _376
REMARK  159  A    between atoms: _375  and  _378
REMARK  160  A    between atoms: _378  and  _379
REMARK  161  A    between atoms: _382  and  _384
REMARK  162  A    between atoms: _384  and  _385
REMARK  163  A    between atoms: _388  and  _390
REMARK  164  A    between atoms: _390  and  _391
REMARK  165  A    between atoms: _390  and  _393
REMARK  166  A    between atoms: _393  and  _394
REMARK  167  A    between atoms: _394  and  _395
REMARK  168  A    between atoms: _400  and  _402
REMARK  169  A    between atoms: _402  and  _403
REMARK  170  A    between atoms: _402  and  _405
REMARK  171  A    between atoms: _405  and  _406
REMARK  172  A    between atoms: _409  and  _411
REMARK  173  A    between atoms: _411  and  _412
REMARK  174  A    between atoms: _411  and  _414
REMARK  175  A    between atoms: _414  and  _415
REMARK  176  A    between atoms: _418  and  _420
REMARK  177  A    between atoms: _420  and  _421
REMARK  178  A    between atoms: _420  and  _423
REMARK  179  A    between atoms: _425  and  _427
REMARK  180  A    between atoms: _427  and  _428
REMARK  181  A    between atoms: _427  and  _430
REMARK  182  A    between atoms: _430  and  _431
REMARK  183  A    between atoms: _434  and  _436
REMARK  184  A    between atoms: _436  and  _437
REMARK  185  A    between atoms: _436  and  _439
REMARK  186  A    between atoms: _439  and  _440
REMARK  187  A    between atoms: _443  and  _445
REMARK  188  A    between atoms: _445  and  _446
REMARK  189  A    between atoms: _445  and  _448
REMARK  190  A    between atoms: _451  and  _453
REMARK  191  A    between atoms: _453  and  _454
REMARK  192  A    between atoms: _453  and  _456
REMARK  193  A    between atoms: _456  and  _457
REMARK  194  A    between atoms: _460  and  _462
REMARK  195  A    between atoms: _462  and  _463
REMARK  196  A    between atoms: _462  and  _465
REMARK  197  A    between atoms: _465  and  _466
REMARK  198  A    between atoms: _469  and  _471
REMARK  199  A    between atoms: _471  and  _472
REMARK  200  A    between atoms: _471  and  _474
REMARK  201  A    between atoms: _474  and  _475
REMARK  202  A    between atoms: _480  and  _482
REMARK  203  A    between atoms: _482  and  _483
REMARK  204  A    between atoms: _482  and  _485
REMARK  205  A    between atoms: _485  and  _486
REMARK  206  A    between atoms: _491  and  _492
REMARK  207  A    between atoms: _494  and  _496
REMARK  208  A    between atoms: _496  and  _497
REMARK  209  A    between atoms: _496  and  _499
REMARK  210  A    between atoms: _499  and  _500
REMARK  211  A    between atoms: _500  and  _501
REMARK  212  A    between atoms: _503  and  _505
REMARK  213  A    between atoms: _505  and  _506
REMARK  214  A    between atoms: _505  and  _508
REMARK  215  A    between atoms: _508  and  _509
REMARK  216  A    between atoms: _512  and  _514
REMARK  217  A    between atoms: _514  and  _515
REMARK  218  A    between atoms: _514  and  _517
REMARK  219  A    between atoms: _517  and  _518
REMARK  220  A    between atoms: _520  and  _522
REMARK  221  A    between atoms: _522  and  _523
REMARK  222  A    between atoms: _522  and  _525
REMARK  223  A    between atoms: _525  and  _526
REMARK  224  A    between atoms: _531  and  _532
REMARK  225  A    between atoms: _534  and  _536
REMARK  226  A    between atoms: _536  and  _537
REMARK  227  A    between atoms: _536  and  _539
REMARK  228  A    between atoms: _539  and  _540
REMARK                            x       y       z     vdW  Elec       q    Type
REMARK                         _______ _______ _______ _____ _____    ______ ____
ROOT
ATOM      1  O   HOH     1      19.969   9.692  14.549  0.00  0.00    +0.000 OA
ENDROOT
TORSDOF 0
REMARK  Name = ../refined-set-2016/4qdk/4qdk_pocket.pdb
REMARK  228 active torsions:
REMARK  status: ('A' for Active; 'I' for Inactive)
REMARK    1  A    between atoms: _1  and  _3
REMARK    2  A    between atoms: _3  and  _4
REMARK    3  A    between atoms: _3  and  _6
REMARK    4  A    between atoms: _6  and  _7
REMARK    5  A    between atoms: _10  and  _12
REMARK    6  A    between atoms: _12  and  _13
REMARK    7  A    between atoms: _12  and  _15
REMARK    8  A    between atoms: _15  and  _16
REMARK    9  A    between atoms: _16  and  _17
REMARK   10  A    between atoms: _17  and  _18
REMARK   11  A    between atoms: _18  and  _19
REMARK   12  A    between atoms: _23  and  _25
REMARK   13  A    between atoms: _25  and  _26
REMARK   14  A    between atoms: _25  and  _28
REMARK   15  A    between atoms: _28  and  _29
REMARK   16  A    between atoms: _32  and  _34
REMARK   17  A    between atoms: _34  and  _35
REMARK   18  A    between atoms: _34  and  _37
REMARK   19  A    between atoms: _40  and  _42
REMARK   20  A    between atoms: _42  and  _43
REMARK   21  A    between atoms: _42  and  _45
REMARK   22  A    between atoms: _45  and  _46
REMARK   23  A    between atoms: _46  and  _47
REMARK   24  A    between atoms: _47  and  _48
REMARK   25  A    between atoms: _57  and  _59
REMARK   26  A    between atoms: _59  and  _60
REMARK   27  A    between atoms: _59  and  _62
REMARK   28  A    between atoms: _62  and  _63
REMARK   29  A    between atoms: _66  and  _68
REMARK   30  A    between atoms: _68  and  _69
REMARK   31  A    between atoms: _68  and  _71
REMARK   32  A    between atoms: _71  and  _72
REMARK   33  A    between atoms: _77  and  _78
REMARK   34  A    between atoms: _80  and  _82
REMARK   35  A    between atoms: _82  and  _83
REMARK   36  A    between atoms: _82  and  _85
REMARK   37  A    between atoms: _85  and  _86
REMARK   38  A    between atoms: _92  and  _94
REMARK   39  A    between atoms: _94  and  _95
REMARK   40  A    between atoms: _94  and  _97
REMARK   41  A    between atoms: _97  and  _98
REMARK   42  A    between atoms: _103  and  _105
REMARK   43  A    between atoms: _105  and  _106
REMARK   44  A    between atoms: _108  and  _110
REMARK   45  A    between atoms: _110  and  _111
REMARK   46  A    between atoms: _110  and  _113
REMARK   47  A    between atoms: _113  and  _114
REMARK   48  A    between atoms: _120  and  _122
REMARK   49  A    between atoms: _122  and  _123
REMARK   50  A    between atoms: _122  and  _125
REMARK   51  A    between atoms: _125  and  _126
REMARK   52  A    between atoms: _136  and  _138
REMARK   53  A    between atoms: _138  and  _139
REMARK   54  A    between atoms: _138  and  _141
REMARK   55  A    between atoms: _141  and  _142
REMARK   56  A    between atoms: _147  and  _148
REMARK   57  A    between atoms: _150  and  _152
REMARK   58  A    between atoms: _152  and  _153
REMARK   59  A    between atoms: _152  and  _155
REMARK   60  A    between atoms: _155  and  _156
REMARK   61  A    between atoms: _161  and  _163
REMARK   62  A    between atoms: _163  and  _164
REMARK   63  A    between atoms: _163  and  _166
REMARK   64  A    between atoms: _166  and  _167
REMARK   65  A    between atoms: _167  and  _168
REMARK   66  A    between atoms: _173  and  _175
REMARK   67  A    between atoms: _175  and  _176
REMARK   68  A    between atoms: _175  and  _178
REMARK   69  A    between atoms: _178  and  _179
REMARK   70  A    between atoms: _182  and  _184
REMARK   71  A    between atoms: _184  and  _185
REMARK   72  A    between atoms: _184  and  _187
REMARK   73  A    between atoms: _190  and  _192
REMARK   74  A    between atoms: _192  and  _193
REMARK   75  A    between atoms: _192  and  _195
REMARK   76  A    between atoms: _195  and  _196
REMARK   77  A    between atoms: _199  and  _201
REMARK   78  A    between atoms: _201  and  _202
REMARK   79  A    between atoms: _205  and  _207
REMARK   80  A    between atoms: _207  and  _208
REMARK   81  A    between atoms: _210  and  _212
REMARK   82  A    between atoms: _212  and  _213
REMARK   83  A    between atoms: _212  and  _215
REMARK   84  A    between atoms: _217  and  _219
REMARK   85  A    between atoms: _219  and  _220
REMARK   86  A    between atoms: _222  and  _224
REMARK   87  A    between atoms: _224  and  _225
REMARK   88  A    between atoms: _224  and  _227
REMARK   89  A    between atoms: _230  and  _232
REMARK   90  A    between atoms: _232  and  _233
REMARK   91  A    between atoms: _235  and  _237
REMARK   92  A    between atoms: _237  and  _238
REMARK   93  A    between atoms: _237  and  _240
REMARK   94  A    between atoms: _240  and  _241
REMARK   95  A    between atoms: _243  and  _245
REMARK   96  A    between atoms: _245  and  _246
REMARK   97  A    between atoms: _245  and  _248
REMARK   98  A    between atoms: _248  and  _249
REMARK   99  A    between atoms: _252  and  _254
REMARK  100  A    between atoms: _254  and  _255
REMARK  101  A    between atoms: _254  and  _257
REMARK  102  A    between atoms: _257  and  _258
REMARK  103  A    between atoms: _260  and  _262
REMARK  104  A    between atoms: _262  and  _263
REMARK  105  A    between atoms: _262  and  _265
REMARK  106  A    between atoms: _265  and  _266
REMARK  107  A    between atoms: _268  and  _270
REMARK  108  A    between atoms: _270  and  _271
REMARK  109  A    between atoms: _270  and  _273
REMARK  110  A    between atoms: _273  and  _274
REMARK  111  A    between atoms: _277  and  _279
REMARK  112  A    between atoms: _279  and  _280
REMARK  113  A    between atoms: _279  and  _282
REMARK  114  A    between atoms: _282  and  _283
REMARK  115  A    between atoms: _286  and  _288
REMARK  116  A    between atoms: _288  and  _289
REMARK  117  A    between atoms: _288  and  _291
REMARK  118  A    between atoms: _291  and  _292
REMARK  119  A    between atoms: _294  and  _296
REMARK  120  A    between atoms: _296  and  _297
REMARK  121  A    between atoms: _296  and  _299
REMARK  122  A    between atoms: _299  and  _300
REMARK  123  A    between atoms: _300  and  _301
REMARK  124  A    between atoms: _304  and  _306
REMARK  125  A    between atoms: _306  and  _307
REMARK  126  A    between atoms: _306  and  _309
REMARK  127  A    between atoms: _309  and  _310
REMARK  128  A    between atoms: _310  and  _311
REMARK  129  A    between atoms: _311  and  _312
REMARK  130  A    between atoms: _312  and  _313
REMARK  131  A    between atoms: _317  and  _319
REMARK  132  A    between atoms: _319  and  _320
REMARK  133  A    between atoms: _319  and  _322
REMARK  134  A    between atoms: _322  and  _323
REMARK  135  A    between atoms: _323  and  _324
REMARK  136  A    between atoms: _326  and  _328
REMARK  137  A    between atoms: _328  and  _329
REMARK  138  A    between atoms: _328  and  _331
REMARK  139  A    between atoms: _334  and  _336
REMARK  140  A    between atoms: _336  and  _337
REMARK  141  A    between atoms: _336  and  _339
REMARK  142  A    between atoms: _339  and  _340
REMARK  143  A    between atoms: _340  and  _341
REMARK  144  A    between atoms: _343  and  _345
REMARK  145  A    between atoms: _345  and  _346
REMARK  146  A    between atoms: _345  and  _348
REMARK  147  A    between atoms: _348  and  _349
REMARK  148  A    between atoms: _352  and  _354
REMARK  149  A    between atoms: _354  and  _355
REMARK  150  A    between atoms: _354  and  _357
REMARK  151  A    between atoms: _357  and  _358
REMARK  152  A    between atoms: _358  and  _359
REMARK  153  A    between atoms: _364  and  _366
REMARK  154  A    between atoms: _366  and  _367
REMARK  155  A    between atoms: _366  and  _369
REMARK  156  A    between atoms: _369  and  _370
REMARK  157  A    between atoms: _373  and  _375
REMARK  158  A    between atoms: _375  and  _376
REMARK  159  A    between atoms: _375  and  _378
REMARK  160  A    between atoms: _378  and  _379
REMARK  161  A    between atoms: _382  and  _384
REMARK  162  A    between atoms: _384  and  _385
REMARK  163  A    between atoms: _388  and  _390
REMARK  164  A    between atoms: _390  and  _391
REMARK  165  A    between atoms: _390  and  _393
REMARK  166  A    between atoms: _393  and  _394
REMARK  167  A    between atoms: _394  and  _395
REMARK  168  A    between atoms: _400  and  _402
REMARK  169  A    between atoms: _402  and  _403
REMARK  170  A    between atoms: _402  and  _405
REMARK  171  A    between atoms: _405  and  _406
REMARK  172  A    between atoms: _409  and  _411
REMARK  173  A    between atoms: _411  and  _412
REMARK  174  A    between atoms: _411  and  _414
REMARK  175  A    between atoms: _414  and  _415
REMARK  176  A    between atoms: _418  and  _420
REMARK  177  A    between atoms: _420  and  _421
REMARK  178  A    between atoms: _420  and  _423
REMARK  179  A    between atoms: _425  and  _427
REMARK  180  A    between atoms: _427  and  _428
REMARK  181  A    between atoms: _427  and  _430
REMARK  182  A    between atoms: _430  and  _431
REMARK  183  A    between atoms: _434  and  _436
REMARK  184  A    between atoms: _436  and  _437
REMARK  185  A    between atoms: _436  and  _439
REMARK  186  A    between atoms: _439  and  _440
REMARK  187  A    between atoms: _443  and  _445
REMARK  188  A    between atoms: _445  and  _446
REMARK  189  A    between atoms: _445  and  _448
REMARK  190  A    between atoms: _451  and  _453
REMARK  191  A    between atoms: _453  and  _454
REMARK  192  A    between atoms: _453  and  _456
REMARK  193  A    between atoms: _456  and  _457
REMARK  194  A    between atoms: _460  and  _462
REMARK  195  A    between atoms: _462  and  _463
REMARK  196  A    between atoms: _462  and  _465
REMARK  197  A    between atoms: _465  and  _466
REMARK  198  A    between atoms: _469  and  _471
REMARK  199  A    between atoms: _471  and  _472
REMARK  200  A    between atoms: _471  and  _474
REMARK  201  A    between atoms: _474  and  _475
REMARK  202  A    between atoms: _480  and  _482
REMARK  203  A    between atoms: _482  and  _483
REMARK  204  A    between atoms: _482  and  _485
REMARK  205  A    between atoms: _485  and  _486
REMARK  206  A    between atoms: _491  and  _492
REMARK  207  A    between atoms: _494  and  _496
REMARK  208  A    between atoms: _496  and  _497
REMARK  209  A    between atoms: _496  and  _499
REMARK  210  A    between atoms: _499  and  _500
REMARK  211  A    between atoms: _500  and  _501
REMARK  212  A    between atoms: _503  and  _505
REMARK  213  A    between atoms: _505  and  _506
REMARK  214  A    between atoms: _505  and  _508
REMARK  215  A    between atoms: _508  and  _509
REMARK  216  A    between atoms: _512  and  _514
REMARK  217  A    between atoms: _514  and  _515
REMARK  218  A    between atoms: _514  and  _517
REMARK  219  A    between atoms: _517  and  _518
REMARK  220  A    between atoms: _520  and  _522
REMARK  221  A    between atoms: _522  and  _523
REMARK  222  A    between atoms: _522  and  _525
REMARK  223  A    between atoms: _525  and  _526
REMARK  224  A    between atoms: _531  and  _532
REMARK  225  A    between atoms: _534  and  _536
REMARK  226  A    between atoms: _536  and  _537
REMARK  227  A    between atoms: _536  and  _539
REMARK  228  A    between atoms: _539  and  _540
REMARK                            x       y       z     vdW  Elec       q    Type
REMARK                         _______ _______ _______ _____ _____    ______ ____
ROOT
ATOM      1  O   HOH     1      12.447  -4.598   4.648  0.00  0.00    +0.000 OA
ENDROOT
TORSDOF 0
REMARK  Name = ../refined-set-2016/4qdk/4qdk_pocket.pdb
REMARK  228 active torsions:
REMARK  status: ('A' for Active; 'I' for Inactive)
REMARK    1  A    between atoms: _1  and  _3
REMARK    2  A    between atoms: _3  and  _4
REMARK    3  A    between atoms: _3  and  _6
REMARK    4  A    between atoms: _6  and  _7
REMARK    5  A    between atoms: _10  and  _12
REMARK    6  A    between atoms: _12  and  _13
REMARK    7  A    between atoms: _12  and  _15
REMARK    8  A    between atoms: _15  and  _16
REMARK    9  A    between atoms: _16  and  _17
REMARK   10  A    between atoms: _17  and  _18
REMARK   11  A    between atoms: _18  and  _19
REMARK   12  A    between atoms: _23  and  _25
REMARK   13  A    between atoms: _25  and  _26
REMARK   14  A    between atoms: _25  and  _28
REMARK   15  A    between atoms: _28  and  _29
REMARK   16  A    between atoms: _32  and  _34
REMARK   17  A    between atoms: _34  and  _35
REMARK   18  A    between atoms: _34  and  _37
REMARK   19  A    between atoms: _40  and  _42
REMARK   20  A    between atoms: _42  and  _43
REMARK   21  A    between atoms: _42  and  _45
REMARK   22  A    between atoms: _45  and  _46
REMARK   23  A    between atoms: _46  and  _47
REMARK   24  A    between atoms: _47  and  _48
REMARK   25  A    between atoms: _57  and  _59
REMARK   26  A    between atoms: _59  and  _60
REMARK   27  A    between atoms: _59  and  _62
REMARK   28  A    between atoms: _62  and  _63
REMARK   29  A    between atoms: _66  and  _68
REMARK   30  A    between atoms: _68  and  _69
REMARK   31  A    between atoms: _68  and  _71
REMARK   32  A    between atoms: _71  and  _72
REMARK   33  A    between atoms: _77  and  _78
REMARK   34  A    between atoms: _80  and  _82
REMARK   35  A    between atoms: _82  and  _83
REMARK   36  A    between atoms: _82  and  _85
REMARK   37  A    between atoms: _85  and  _86
REMARK   38  A    between atoms: _92  and  _94
REMARK   39  A    between atoms: _94  and  _95
REMARK   40  A    between atoms: _94  and  _97
REMARK   41  A    between atoms: _97  and  _98
REMARK   42  A    between atoms: _103  and  _105
REMARK   43  A    between atoms: _105  and  _106
REMARK   44  A    between atoms: _108  and  _110
REMARK   45  A    between atoms: _110  and  _111
REMARK   46  A    between atoms: _110  and  _113
REMARK   47  A    between atoms: _113  and  _114
REMARK   48  A    between atoms: _120  and  _122
REMARK   49  A    between atoms: _122  and  _123
REMARK   50  A    between atoms: _122  and  _125
REMARK   51  A    between atoms: _125  and  _126
REMARK   52  A    between atoms: _136  and  _138
REMARK   53  A    between atoms: _138  and  _139
REMARK   54  A    between atoms: _138  and  _141
REMARK   55  A    between atoms: _141  and  _142
REMARK   56  A    between atoms: _147  and  _148
REMARK   57  A    between atoms: _150  and  _152
REMARK   58  A    between atoms: _152  and  _153
REMARK   59  A    between atoms: _152  and  _155
REMARK   60  A    between atoms: _155  and  _156
REMARK   61  A    between atoms: _161  and  _163
REMARK   62  A    between atoms: _163  and  _164
REMARK   63  A    between atoms: _163  and  _166
REMARK   64  A    between atoms: _166  and  _167
REMARK   65  A    between atoms: _167  and  _168
REMARK   66  A    between atoms: _173  and  _175
REMARK   67  A    between atoms: _175  and  _176
REMARK   68  A    between atoms: _175  and  _178
REMARK   69  A    between atoms: _178  and  _179
REMARK   70  A    between atoms: _182  and  _184
REMARK   71  A    between atoms: _184  and  _185
REMARK   72  A    between atoms: _184  and  _187
REMARK   73  A    between atoms: _190  and  _192
REMARK   74  A    between atoms: _192  and  _193
REMARK   75  A    between atoms: _192  and  _195
REMARK   76  A    between atoms: _195  and  _196
REMARK   77  A    between atoms: _199  and  _201
REMARK   78  A    between atoms: _201  and  _202
REMARK   79  A    between atoms: _205  and  _207
REMARK   80  A    between atoms: _207  and  _208
REMARK   81  A    between atoms: _210  and  _212
REMARK   82  A    between atoms: _212  and  _213
REMARK   83  A    between atoms: _212  and  _215
REMARK   84  A    between atoms: _217  and  _219
REMARK   85  A    between atoms: _219  and  _220
REMARK   86  A    between atoms: _222  and  _224
REMARK   87  A    between atoms: _224  and  _225
REMARK   88  A    between atoms: _224  and  _227
REMARK   89  A    between atoms: _230  and  _232
REMARK   90  A    between atoms: _232  and  _233
REMARK   91  A    between atoms: _235  and  _237
REMARK   92  A    between atoms: _237  and  _238
REMARK   93  A    between atoms: _237  and  _240
REMARK   94  A    between atoms: _240  and  _241
REMARK   95  A    between atoms: _243  and  _245
REMARK   96  A    between atoms: _245  and  _246
REMARK   97  A    between atoms: _245  and  _248
REMARK   98  A    between atoms: _248  and  _249
REMARK   99  A    between atoms: _252  and  _254
REMARK  100  A    between atoms: _254  and  _255
REMARK  101  A    between atoms: _254  and  _257
REMARK  102  A    between atoms: _257  and  _258
REMARK  103  A    between atoms: _260  and  _262
REMARK  104  A    between atoms: _262  and  _263
REMARK  105  A    between atoms: _262  and  _265
REMARK  106  A    between atoms: _265  and  _266
REMARK  107  A    between atoms: _268  and  _270
REMARK  108  A    between atoms: _270  and  _271
REMARK  109  A    between atoms: _270  and  _273
REMARK  110  A    between atoms: _273  and  _274
REMARK  111  A    between atoms: _277  and  _279
REMARK  112  A    between atoms: _279  and  _280
REMARK  113  A    between atoms: _279  and  _282
REMARK  114  A    between atoms: _282  and  _283
REMARK  115  A    between atoms: _286  and  _288
REMARK  116  A    between atoms: _288  and  _289
REMARK  117  A    between atoms: _288  and  _291
REMARK  118  A    between atoms: _291  and  _292
REMARK  119  A    between atoms: _294  and  _296
REMARK  120  A    between atoms: _296  and  _297
REMARK  121  A    between atoms: _296  and  _299
REMARK  122  A    between atoms: _299  and  _300
REMARK  123  A    between atoms: _300  and  _301
REMARK  124  A    between atoms: _304  and  _306
REMARK  125  A    between atoms: _306  and  _307
REMARK  126  A    between atoms: _306  and  _309
REMARK  127  A    between atoms: _309  and  _310
REMARK  128  A    between atoms: _310  and  _311
REMARK  129  A    between atoms: _311  and  _312
REMARK  130  A    between atoms: _312  and  _313
REMARK  131  A    between atoms: _317  and  _319
REMARK  132  A    between atoms: _319  and  _320
REMARK  133  A    between atoms: _319  and  _322
REMARK  134  A    between atoms: _322  and  _323
REMARK  135  A    between atoms: _323  and  _324
REMARK  136  A    between atoms: _326  and  _328
REMARK  137  A    between atoms: _328  and  _329
REMARK  138  A    between atoms: _328  and  _331
REMARK  139  A    between atoms: _334  and  _336
REMARK  140  A    between atoms: _336  and  _337
REMARK  141  A    between atoms: _336  and  _339
REMARK  142  A    between atoms: _339  and  _340
REMARK  143  A    between atoms: _340  and  _341
REMARK  144  A    between atoms: _343  and  _345
REMARK  145  A    between atoms: _345  and  _346
REMARK  146  A    between atoms: _345  and  _348
REMARK  147  A    between atoms: _348  and  _349
REMARK  148  A    between atoms: _352  and  _354
REMARK  149  A    between atoms: _354  and  _355
REMARK  150  A    between atoms: _354  and  _357
REMARK  151  A    between atoms: _357  and  _358
REMARK  152  A    between atoms: _358  and  _359
REMARK  153  A    between atoms: _364  and  _366
REMARK  154  A    between atoms: _366  and  _367
REMARK  155  A    between atoms: _366  and  _369
REMARK  156  A    between atoms: _369  and  _370
REMARK  157  A    between atoms: _373  and  _375
REMARK  158  A    between atoms: _375  and  _376
REMARK  159  A    between atoms: _375  and  _378
REMARK  160  A    between atoms: _378  and  _379
REMARK  161  A    between atoms: _382  and  _384
REMARK  162  A    between atoms: _384  and  _385
REMARK  163  A    between atoms: _388  and  _390
REMARK  164  A    between atoms: _390  and  _391
REMARK  165  A    between atoms: _390  and  _393
REMARK  166  A    between atoms: _393  and  _394
REMARK  167  A    between atoms: _394  and  _395
REMARK  168  A    between atoms: _400  and  _402
REMARK  169  A    between atoms: _402  and  _403
REMARK  170  A    between atoms: _402  and  _405
REMARK  171  A    between atoms: _405  and  _406
REMARK  172  A    between atoms: _409  and  _411
REMARK  173  A    between atoms: _411  and  _412
REMARK  174  A    between atoms: _411  and  _414
REMARK  175  A    between atoms: _414  and  _415
REMARK  176  A    between atoms: _418  and  _420
REMARK  177  A    between atoms: _420  and  _421
REMARK  178  A    between atoms: _420  and  _423
REMARK  179  A    between atoms: _425  and  _427
REMARK  180  A    between atoms: _427  and  _428
REMARK  181  A    between atoms: _427  and  _430
REMARK  182  A    between atoms: _430  and  _431
REMARK  183  A    between atoms: _434  and  _436
REMARK  184  A    between atoms: _436  and  _437
REMARK  185  A    between atoms: _436  and  _439
REMARK  186  A    between atoms: _439  and  _440
REMARK  187  A    between atoms: _443  and  _445
REMARK  188  A    between atoms: _445  and  _446
REMARK  189  A    between atoms: _445  and  _448
REMARK  190  A    between atoms: _451  and  _453
REMARK  191  A    between atoms: _453  and  _454
REMARK  192  A    between atoms: _453  and  _456
REMARK  193  A    between atoms: _456  and  _457
REMARK  194  A    between atoms: _460  and  _462
REMARK  195  A    between atoms: _462  and  _463
REMARK  196  A    between atoms: _462  and  _465
REMARK  197  A    between atoms: _465  and  _466
REMARK  198  A    between atoms: _469  and  _471
REMARK  199  A    between atoms: _471  and  _472
REMARK  200  A    between atoms: _471  and  _474
REMARK  201  A    between atoms: _474  and  _475
REMARK  202  A    between atoms: _480  and  _482
REMARK  203  A    between atoms: _482  and  _483
REMARK  204  A    between atoms: _482  and  _485
REMARK  205  A    between atoms: _485  and  _486
REMARK  206  A    between atoms: _491  and  _492
REMARK  207  A    between atoms: _494  and  _496
REMARK  208  A    between atoms: _496  and  _497
REMARK  209  A    between atoms: _496  and  _499
REMARK  210  A    between atoms: _499  and  _500
REMARK  211  A    between atoms: _500  and  _501
REMARK  212  A    between atoms: _503  and  _505
REMARK  213  A    between atoms: _505  and  _506
REMARK  214  A    between atoms: _505  and  _508
REMARK  215  A    between atoms: _508  and  _509
REMARK  216  A    between atoms: _512  and  _514
REMARK  217  A    between atoms: _514  and  _515
REMARK  218  A    between atoms: _514  and  _517
REMARK  219  A    between atoms: _517  and  _518
REMARK  220  A    between atoms: _520  and  _522
REMARK  221  A    between atoms: _522  and  _523
REMARK  222  A    between atoms: _522  and  _525
REMARK  223  A    between atoms: _525  and  _526
REMARK  224  A    between atoms: _531  and  _532
REMARK  225  A    between atoms: _534  and  _536
REMARK  226  A    between atoms: _536  and  _537
REMARK  227  A    between atoms: _536  and  _539
REMARK  228  A    between atoms: _539  and  _540
REMARK                            x       y       z     vdW  Elec       q    Type
REMARK                         _______ _______ _______ _____ _____    ______ ____
ROOT
ATOM      1  O   HOH     1      29.098   6.392  22.790  0.00  0.00    +0.000 OA
ENDROOT
TORSDOF 0
