REMARK  Name = ../refined-set-2016/4c1u/4c1u_pocket.pdb
REMARK  228 active torsions:
REMARK  status: ('A' for Active; 'I' for Inactive)
REMARK    1  A    between atoms: _1  and  _3
REMARK    2  A    between atoms: _3  and  _4
REMARK    3  A    between atoms: _3  and  _6
REMARK    4  A    between atoms: _6  and  _7
REMARK    5  A    between atoms: _12  and  _14
REMARK    6  A    between atoms: _14  and  _15
REMARK    7  A    between atoms: _14  and  _17
REMARK    8  A    between atoms: _17  and  _18
REMARK    9  A    between atoms: _23  and  _25
REMARK   10  A    between atoms: _25  and  _26
REMARK   11  A    between atoms: _29  and  _31
REMARK   12  A    between atoms: _31  and  _32
REMARK   13  A    between atoms: _31  and  _34
REMARK   14  A    between atoms: _34  and  _35
REMARK   15  A    between atoms: _37  and  _39
REMARK   16  A    between atoms: _39  and  _40
REMARK   17  A    between atoms: _43  and  _45
REMARK   18  A    between atoms: _45  and  _46
REMARK   19  A    between atoms: _48  and  _50
REMARK   20  A    between atoms: _50  and  _51
REMARK   21  A    between atoms: _50  and  _53
REMARK   22  A    between atoms: _53  and  _54
REMARK   23  A    between atoms: _54  and  _55
REMARK   24  A    between atoms: _55  and  _56
REMARK   25  A    between atoms: _65  and  _67
REMARK   26  A    between atoms: _67  and  _68
REMARK   27  A    between atoms: _67  and  _70
REMARK   28  A    between atoms: _70  and  _71
REMARK   29  A    between atoms: _81  and  _83
REMARK   30  A    between atoms: _83  and  _84
REMARK   31  A    between atoms: _83  and  _86
REMARK   32  A    between atoms: _86  and  _87
REMARK   33  A    between atoms: _90  and  _92
REMARK   34  A    between atoms: _92  and  _93
REMARK   35  A    between atoms: _92  and  _95
REMARK   36  A    between atoms: _95  and  _96
REMARK   37  A    between atoms: _96  and  _97
REMARK   38  A    between atoms: _102  and  _104
REMARK   39  A    between atoms: _104  and  _105
REMARK   40  A    between atoms: _104  and  _107
REMARK   41  A    between atoms: _107  and  _108
REMARK   42  A    between atoms: _113  and  _115
REMARK   43  A    between atoms: _115  and  _116
REMARK   44  A    between atoms: _115  and  _118
REMARK   45  A    between atoms: _118  and  _119
REMARK   46  A    between atoms: _119  and  _120
REMARK   47  A    between atoms: _123  and  _125
REMARK   48  A    between atoms: _125  and  _126
REMARK   49  A    between atoms: _125  and  _128
REMARK   50  A    between atoms: _128  and  _129
REMARK   51  A    between atoms: _135  and  _137
REMARK   52  A    between atoms: _137  and  _138
REMARK   53  A    between atoms: _141  and  _143
REMARK   54  A    between atoms: _143  and  _144
REMARK   55  A    between atoms: _143  and  _146
REMARK   56  A    between atoms: _146  and  _147
REMARK   57  A    between atoms: _147  and  _148
REMARK   58  A    between atoms: _150  and  _152
REMARK   59  A    between atoms: _152  and  _153
REMARK   60  A    between atoms: _152  and  _155
REMARK   61  A    between atoms: _155  and  _156
REMARK   62  A    between atoms: _158  and  _160
REMARK   63  A    between atoms: _160  and  _161
REMARK   64  A    between atoms: _160  and  _163
REMARK   65  A    between atoms: _163  and  _164
REMARK   66  A    between atoms: _167  and  _169
REMARK   67  A    between atoms: _169  and  _170
REMARK   68  A    between atoms: _169  and  _172
REMARK   69  A    between atoms: _172  and  _173
REMARK   70  A    between atoms: _173  and  _174
REMARK   71  A    between atoms: _174  and  _175
REMARK   72  A    between atoms: _175  and  _176
REMARK   73  A    between atoms: _180  and  _182
REMARK   74  A    between atoms: _182  and  _183
REMARK   75  A    between atoms: _182  and  _185
REMARK   76  A    between atoms: _188  and  _190
REMARK   77  A    between atoms: _190  and  _191
REMARK   78  A    between atoms: _190  and  _193
REMARK   79  A    between atoms: _193  and  _194
REMARK   80  A    between atoms: _196  and  _198
REMARK   81  A    between atoms: _198  and  _199
REMARK   82  A    between atoms: _198  and  _201
REMARK   83  A    between atoms: _204  and  _206
REMARK   84  A    between atoms: _206  and  _207
REMARK   85  A    between atoms: _206  and  _209
REMARK   86  A    between atoms: _209  and  _210
REMARK   87  A    between atoms: _210  and  _211
REMARK   88  A    between atoms: _214  and  _216
REMARK   89  A    between atoms: _216  and  _217
REMARK   90  A    between atoms: _216  and  _219
REMARK   91  A    between atoms: _219  and  _220
REMARK   92  A    between atoms: _223  and  _225
REMARK   93  A    between atoms: _225  and  _226
REMARK   94  A    between atoms: _229  and  _231
REMARK   95  A    between atoms: _231  and  _232
REMARK   96  A    between atoms: _231  and  _234
REMARK   97  A    between atoms: _234  and  _235
REMARK   98  A    between atoms: _246  and  _247
REMARK   99  A    between atoms: _252  and  _254
REMARK  100  A    between atoms: _254  and  _255
REMARK  101  A    between atoms: _258  and  _260
REMARK  102  A    between atoms: _260  and  _261
REMARK  103  A    between atoms: _260  and  _263
REMARK  104  A    between atoms: _263  and  _264
REMARK  105  A    between atoms: _269  and  _271
REMARK  106  A    between atoms: _271  and  _272
REMARK  107  A    between atoms: _271  and  _274
REMARK  108  A    between atoms: _274  and  _275
REMARK  109  A    between atoms: _280  and  _281
REMARK  110  A    between atoms: _283  and  _285
REMARK  111  A    between atoms: _285  and  _286
REMARK  112  A    between atoms: _289  and  _291
REMARK  113  A    between atoms: _291  and  _292
REMARK  114  A    between atoms: _291  and  _294
REMARK  115  A    between atoms: _294  and  _295
REMARK  116  A    between atoms: _295  and  _296
REMARK  117  A    between atoms: _301  and  _303
REMARK  118  A    between atoms: _303  and  _304
REMARK  119  A    between atoms: _303  and  _306
REMARK  120  A    between atoms: _306  and  _307
REMARK  121  A    between atoms: _307  and  _308
REMARK  122  A    between atoms: _310  and  _312
REMARK  123  A    between atoms: _312  and  _313
REMARK  124  A    between atoms: _315  and  _317
REMARK  125  A    between atoms: _317  and  _318
REMARK  126  A    between atoms: _321  and  _323
REMARK  127  A    between atoms: _323  and  _324
REMARK  128  A    between atoms: _323  and  _326
REMARK  129  A    between atoms: _326  and  _327
REMARK  130  A    between atoms: _337  and  _339
REMARK  131  A    between atoms: _339  and  _340
REMARK  132  A    between atoms: _339  and  _342
REMARK  133  A    between atoms: _342  and  _343
REMARK  134  A    between atoms: _343  and  _344
REMARK  135  A    between atoms: _347  and  _349
REMARK  136  A    between atoms: _349  and  _350
REMARK  137  A    between atoms: _352  and  _354
REMARK  138  A    between atoms: _354  and  _355
REMARK  139  A    between atoms: _354  and  _357
REMARK  140  A    between atoms: _360  and  _362
REMARK  141  A    between atoms: _362  and  _363
REMARK  142  A    between atoms: _362  and  _365
REMARK  143  A    between atoms: _365  and  _366
REMARK  144  A    between atoms: _366  and  _367
REMARK  145  A    between atoms: _369  and  _371
REMARK  146  A    between atoms: _371  and  _372
REMARK  147  A    between atoms: _374  and  _376
REMARK  148  A    between atoms: _376  and  _377
REMARK  149  A    between atoms: _379  and  _381
REMARK  150  A    between atoms: _381  and  _382
REMARK  151  A    between atoms: _381  and  _384
REMARK  152  A    between atoms: _387  and  _389
REMARK  153  A    between atoms: _389  and  _390
REMARK  154  A    between atoms: _389  and  _392
REMARK  155  A    between atoms: _392  and  _393
REMARK  156  A    between atoms: _396  and  _398
REMARK  157  A    between atoms: _398  and  _399
REMARK  158  A    between atoms: _398  and  _401
REMARK  159  A    between atoms: _401  and  _402
REMARK  160  A    between atoms: _407  and  _408
REMARK  161  A    between atoms: _410  and  _412
REMARK  162  A    between atoms: _412  and  _413
REMARK  163  A    between atoms: _412  and  _415
REMARK  164  A    between atoms: _415  and  _416
REMARK  165  A    between atoms: _422  and  _424
REMARK  166  A    between atoms: _424  and  _425
REMARK  167  A    between atoms: _424  and  _427
REMARK  168  A    between atoms: _427  and  _428
REMARK  169  A    between atoms: _428  and  _429
REMARK  170  A    between atoms: _434  and  _436
REMARK  171  A    between atoms: _436  and  _437
REMARK  172  A    between atoms: _436  and  _439
REMARK  173  A    between atoms: _439  and  _440
REMARK  174  A    between atoms: _445  and  _446
REMARK  175  A    between atoms: _448  and  _450
REMARK  176  A    between atoms: _450  and  _451
REMARK  177  A    between atoms: _454  and  _456
REMARK  178  A    between atoms: _456  and  _457
REMARK  179  A    between atoms: _456  and  _459
REMARK  180  A    between atoms: _459  and  _460
REMARK  181  A    between atoms: _466  and  _468
REMARK  182  A    between atoms: _468  and  _469
REMARK  183  A    between atoms: _468  and  _471
REMARK  184  A    between atoms: _471  and  _472
REMARK  185  A    between atoms: _474  and  _476
REMARK  186  A    between atoms: _476  and  _477
REMARK  187  A    between atoms: _476  and  _479
REMARK  188  A    between atoms: _479  and  _480
REMARK  189  A    between atoms: _483  and  _485
REMARK  190  A    between atoms: _485  and  _486
REMARK  191  A    between atoms: _485  and  _488
REMARK  192  A    between atoms: _488  and  _489
REMARK  193  A    between atoms: _493  and  _494
REMARK  194  A    between atoms: _499  and  _501
REMARK  195  A    between atoms: _501  and  _502
REMARK  196  A    between atoms: _505  and  _507
REMARK  197  A    between atoms: _507  and  _508
REMARK  198  A    between atoms: _507  and  _510
REMARK  199  A    between atoms: _510  and  _511
REMARK  200  A    between atoms: _514  and  _516
REMARK  201  A    between atoms: _516  and  _517
REMARK  202  A    between atoms: _516  and  _519
REMARK  203  A    between atoms: _519  and  _520
REMARK  204  A    between atoms: _530  and  _532
REMARK  205  A    between atoms: _532  and  _533
REMARK  206  A    between atoms: _532  and  _535
REMARK  207  A    between atoms: _535  and  _536
REMARK  208  A    between atoms: _536  and  _537
REMARK  209  A    between atoms: _539  and  _541
REMARK  210  A    between atoms: _541  and  _542
REMARK  211  A    between atoms: _541  and  _544
REMARK  212  A    between atoms: _544  and  _545
REMARK  213  A    between atoms: _548  and  _550
REMARK  214  A    between atoms: _550  and  _551
REMARK  215  A    between atoms: _550  and  _553
REMARK  216  A    between atoms: _553  and  _554
REMARK  217  A    between atoms: _557  and  _559
REMARK  218  A    between atoms: _559  and  _560
REMARK  219  A    between atoms: _563  and  _565
REMARK  220  A    between atoms: _565  and  _566
REMARK  221  A    between atoms: _568  and  _570
REMARK  222  A    between atoms: _570  and  _571
REMARK  223  A    between atoms: _570  and  _573
REMARK  224  A    between atoms: _573  and  _574
REMARK  225  A    between atoms: _579  and  _581
REMARK  226  A    between atoms: _581  and  _582
REMARK  227  A    between atoms: _581  and  _584
REMARK  228  A    between atoms: _584  and  _585
REMARK                            x       y       z     vdW  Elec       q    Type
REMARK                         _______ _______ _______ _____ _____    ______ ____
ROOT
ATOM      1  C   ASN A   2     -22.130  13.745 -13.926  0.00  0.00    +0.241 C 
ATOM      2  O   ASN A   2     -22.487  14.777 -13.357  0.00  0.00    -0.273 OA
ATOM      3  N   ALA A   3     -22.842  13.178 -14.896  0.00  0.00    -0.297 N 
ATOM      4  H   ALA A   3     -22.467  12.333 -15.372  0.00  0.00    +0.150 HD
ENDROOT
BRANCH   3   5
ATOM      5  CA  ALA A   3     -24.137  13.712 -15.309  0.00  0.00    +0.149 C 
ATOM      6  CB  ALA A   3     -24.380  13.431 -16.783  0.00  0.00    +0.031 C 
BRANCH   5   7
ATOM      7  C   ALA A   3     -25.243  13.098 -14.461  0.00  0.00    +0.241 C 
ATOM      8  N   SER A   4     -25.508  13.711 -13.312  0.00  0.00    -0.295 N 
ATOM      9  H   SER A   4     -25.049  14.621 -13.108  0.00  0.00    +0.150 HD
ATOM     10  O   ALA A   3     -25.845  12.096 -14.842  0.00  0.00    -0.273 OA
BRANCH   8  11
ATOM     11  CA  SER A   4     -26.425  13.144 -12.328  0.00  0.00    +0.178 C 
BRANCH  11  12
ATOM     12  C   SER A   4     -27.887  13.509 -12.581  0.00  0.00    +0.243 C 
ATOM     13  O   SER A   4     -28.778  12.975 -11.925  0.00  0.00    -0.273 OA
ATOM     14  N   ALA A   5     -28.132  14.413 -13.525  0.00  0.00    -0.298 N 
ATOM     15  H   ALA A   5     -27.338  14.819 -14.061  0.00  0.00    +0.150 HD
BRANCH  14  16
ATOM     16  CA  ALA A   5     -29.495  14.848 -13.825  0.00  0.00    +0.137 C 
ATOM     17  CB  ALA A   5     -29.926  15.930 -12.844  0.00  0.00    +0.030 C 
BRANCH  16  18
ATOM     18  C   ALA A   5     -29.632  15.362 -15.253  0.00  0.00    +0.227 C 
ATOM     19  O   ALA A   5     -28.638  15.633 -15.926  0.00  0.00    -0.286 OA
ENDBRANCH  16  18
ENDBRANCH  14  16
ENDBRANCH  11  12
BRANCH  11  20
ATOM     20  CB  SER A   4     -26.024  13.589 -10.919  0.00  0.00    +0.166 C 
BRANCH  20  21
ATOM     21  OG  SER A   4     -26.073  15.000 -10.796  0.00  0.00    -0.380 OA
ATOM     22  H   SER A   4     -25.449  15.409 -11.447  0.00  0.00    +0.211 HD
ENDBRANCH  20  21
ENDBRANCH  11  20
ENDBRANCH   8  11
ENDBRANCH   5   7
ENDBRANCH   3   5
BRANCH   1  23
ATOM     23  CA  ASN A   2     -20.815  13.064 -13.539  0.00  0.00    +0.158 C 
BRANCH  23  26
ATOM     24  C   HIS A   1     -20.378  10.736 -14.122  0.00  0.00    +0.239 C 
ATOM     25  O   HIS A   1     -20.900  10.321 -13.087  0.00  0.00    -0.274 OA
ATOM     26  N   ASN A   2     -20.362  12.024 -14.463  0.00  0.00    -0.297 N 
ATOM     27  H   ASN A   2     -20.020  12.296 -15.407  0.00  0.00    +0.150 HD
BRANCH  24  28
ATOM     28  CA  HIS A   1     -19.709   9.761 -15.089  0.00  0.00    +0.151 C 
BRANCH  28  29
ATOM     29  N   HIS A   1     -19.730   8.405 -14.540  0.00  0.00    -0.238 NA
ATOM     30  H   HIS A   1     -20.572   8.083 -14.022  0.00  0.00    +0.142 HD
ENDBRANCH  28  29
BRANCH  28  31
ATOM     31  CB  HIS A   1     -20.391   9.803 -16.457  0.00  0.00    +0.074 C 
BRANCH  31  32
ATOM     32  CG  HIS A   1     -21.840   9.435 -16.423  0.00  0.00    +0.082 A 
ATOM     33  ND1 HIS A   1     -22.818  10.301 -15.980  0.00  0.00    -0.227 NA
ATOM     34  CE1 HIS A   1     -23.995   9.711 -16.061  0.00  0.00    +0.199 A 
ATOM     35  NE2 HIS A   1     -23.820   8.495 -16.548  0.00  0.00    -0.221 NA
ATOM     36  CD2 HIS A   1     -22.481   8.298 -16.782  0.00  0.00    +0.115 A 
ENDBRANCH  31  32
ENDBRANCH  28  31
ENDBRANCH  24  28
ENDBRANCH  23  26
BRANCH  23  37
ATOM     37  CB  ASN A   2     -19.726  14.124 -13.361  0.00  0.00    +0.114 C 
BRANCH  37  38
ATOM     38  CG  ASN A   2     -19.666  15.099 -14.518  0.00  0.00    +0.222 C 
ATOM     39  ND2 ASN A   2     -19.178  16.303 -14.247  0.00  0.00    -0.329 N 
ATOM     40 HD21 ASN A   2     -18.864  16.532 -13.282  0.00  0.00    +0.145 HD
ATOM     41 HD22 ASN A   2     -19.109  17.018 -14.999  0.00  0.00    +0.145 HD
ATOM     42  OD1 ASN A   2     -20.051  14.776 -15.642  0.00  0.00    -0.275 OA
ENDBRANCH  37  38
ENDBRANCH  23  37
ENDBRANCH   1  23
TORSDOF 16
REMARK  Name = ../refined-set-2016/4c1u/4c1u_pocket.pdb
REMARK  228 active torsions:
REMARK  status: ('A' for Active; 'I' for Inactive)
REMARK    1  A    between atoms: _1  and  _3
REMARK    2  A    between atoms: _3  and  _4
REMARK    3  A    between atoms: _3  and  _6
REMARK    4  A    between atoms: _6  and  _7
REMARK    5  A    between atoms: _12  and  _14
REMARK    6  A    between atoms: _14  and  _15
REMARK    7  A    between atoms: _14  and  _17
REMARK    8  A    between atoms: _17  and  _18
REMARK    9  A    between atoms: _23  and  _25
REMARK   10  A    between atoms: _25  and  _26
REMARK   11  A    between atoms: _29  and  _31
REMARK   12  A    between atoms: _31  and  _32
REMARK   13  A    between atoms: _31  and  _34
REMARK   14  A    between atoms: _34  and  _35
REMARK   15  A    between atoms: _37  and  _39
REMARK   16  A    between atoms: _39  and  _40
REMARK   17  A    between atoms: _43  and  _45
REMARK   18  A    between atoms: _45  and  _46
REMARK   19  A    between atoms: _48  and  _50
REMARK   20  A    between atoms: _50  and  _51
REMARK   21  A    between atoms: _50  and  _53
REMARK   22  A    between atoms: _53  and  _54
REMARK   23  A    between atoms: _54  and  _55
REMARK   24  A    between atoms: _55  and  _56
REMARK   25  A    between atoms: _65  and  _67
REMARK   26  A    between atoms: _67  and  _68
REMARK   27  A    between atoms: _67  and  _70
REMARK   28  A    between atoms: _70  and  _71
REMARK   29  A    between atoms: _81  and  _83
REMARK   30  A    between atoms: _83  and  _84
REMARK   31  A    between atoms: _83  and  _86
REMARK   32  A    between atoms: _86  and  _87
REMARK   33  A    between atoms: _90  and  _92
REMARK   34  A    between atoms: _92  and  _93
REMARK   35  A    between atoms: _92  and  _95
REMARK   36  A    between atoms: _95  and  _96
REMARK   37  A    between atoms: _96  and  _97
REMARK   38  A    between atoms: _102  and  _104
REMARK   39  A    between atoms: _104  and  _105
REMARK   40  A    between atoms: _104  and  _107
REMARK   41  A    between atoms: _107  and  _108
REMARK   42  A    between atoms: _113  and  _115
REMARK   43  A    between atoms: _115  and  _116
REMARK   44  A    between atoms: _115  and  _118
REMARK   45  A    between atoms: _118  and  _119
REMARK   46  A    between atoms: _119  and  _120
REMARK   47  A    between atoms: _123  and  _125
REMARK   48  A    between atoms: _125  and  _126
REMARK   49  A    between atoms: _125  and  _128
REMARK   50  A    between atoms: _128  and  _129
REMARK   51  A    between atoms: _135  and  _137
REMARK   52  A    between atoms: _137  and  _138
REMARK   53  A    between atoms: _141  and  _143
REMARK   54  A    between atoms: _143  and  _144
REMARK   55  A    between atoms: _143  and  _146
REMARK   56  A    between atoms: _146  and  _147
REMARK   57  A    between atoms: _147  and  _148
REMARK   58  A    between atoms: _150  and  _152
REMARK   59  A    between atoms: _152  and  _153
REMARK   60  A    between atoms: _152  and  _155
REMARK   61  A    between atoms: _155  and  _156
REMARK   62  A    between atoms: _158  and  _160
REMARK   63  A    between atoms: _160  and  _161
REMARK   64  A    between atoms: _160  and  _163
REMARK   65  A    between atoms: _163  and  _164
REMARK   66  A    between atoms: _167  and  _169
REMARK   67  A    between atoms: _169  and  _170
REMARK   68  A    between atoms: _169  and  _172
REMARK   69  A    between atoms: _172  and  _173
REMARK   70  A    between atoms: _173  and  _174
REMARK   71  A    between atoms: _174  and  _175
REMARK   72  A    between atoms: _175  and  _176
REMARK   73  A    between atoms: _180  and  _182
REMARK   74  A    between atoms: _182  and  _183
REMARK   75  A    between atoms: _182  and  _185
REMARK   76  A    between atoms: _188  and  _190
REMARK   77  A    between atoms: _190  and  _191
REMARK   78  A    between atoms: _190  and  _193
REMARK   79  A    between atoms: _193  and  _194
REMARK   80  A    between atoms: _196  and  _198
REMARK   81  A    between atoms: _198  and  _199
REMARK   82  A    between atoms: _198  and  _201
REMARK   83  A    between atoms: _204  and  _206
REMARK   84  A    between atoms: _206  and  _207
REMARK   85  A    between atoms: _206  and  _209
REMARK   86  A    between atoms: _209  and  _210
REMARK   87  A    between atoms: _210  and  _211
REMARK   88  A    between atoms: _214  and  _216
REMARK   89  A    between atoms: _216  and  _217
REMARK   90  A    between atoms: _216  and  _219
REMARK   91  A    between atoms: _219  and  _220
REMARK   92  A    between atoms: _223  and  _225
REMARK   93  A    between atoms: _225  and  _226
REMARK   94  A    between atoms: _229  and  _231
REMARK   95  A    between atoms: _231  and  _232
REMARK   96  A    between atoms: _231  and  _234
REMARK   97  A    between atoms: _234  and  _235
REMARK   98  A    between atoms: _246  and  _247
REMARK   99  A    between atoms: _252  and  _254
REMARK  100  A    between atoms: _254  and  _255
REMARK  101  A    between atoms: _258  and  _260
REMARK  102  A    between atoms: _260  and  _261
REMARK  103  A    between atoms: _260  and  _263
REMARK  104  A    between atoms: _263  and  _264
REMARK  105  A    between atoms: _269  and  _271
REMARK  106  A    between atoms: _271  and  _272
REMARK  107  A    between atoms: _271  and  _274
REMARK  108  A    between atoms: _274  and  _275
REMARK  109  A    between atoms: _280  and  _281
REMARK  110  A    between atoms: _283  and  _285
REMARK  111  A    between atoms: _285  and  _286
REMARK  112  A    between atoms: _289  and  _291
REMARK  113  A    between atoms: _291  and  _292
REMARK  114  A    between atoms: _291  and  _294
REMARK  115  A    between atoms: _294  and  _295
REMARK  116  A    between atoms: _295  and  _296
REMARK  117  A    between atoms: _301  and  _303
REMARK  118  A    between atoms: _303  and  _304
REMARK  119  A    between atoms: _303  and  _306
REMARK  120  A    between atoms: _306  and  _307
REMARK  121  A    between atoms: _307  and  _308
REMARK  122  A    between atoms: _310  and  _312
REMARK  123  A    between atoms: _312  and  _313
REMARK  124  A    between atoms: _315  and  _317
REMARK  125  A    between atoms: _317  and  _318
REMARK  126  A    between atoms: _321  and  _323
REMARK  127  A    between atoms: _323  and  _324
REMARK  128  A    between atoms: _323  and  _326
REMARK  129  A    between atoms: _326  and  _327
REMARK  130  A    between atoms: _337  and  _339
REMARK  131  A    between atoms: _339  and  _340
REMARK  132  A    between atoms: _339  and  _342
REMARK  133  A    between atoms: _342  and  _343
REMARK  134  A    between atoms: _343  and  _344
REMARK  135  A    between atoms: _347  and  _349
REMARK  136  A    between atoms: _349  and  _350
REMARK  137  A    between atoms: _352  and  _354
REMARK  138  A    between atoms: _354  and  _355
REMARK  139  A    between atoms: _354  and  _357
REMARK  140  A    between atoms: _360  and  _362
REMARK  141  A    between atoms: _362  and  _363
REMARK  142  A    between atoms: _362  and  _365
REMARK  143  A    between atoms: _365  and  _366
REMARK  144  A    between atoms: _366  and  _367
REMARK  145  A    between atoms: _369  and  _371
REMARK  146  A    between atoms: _371  and  _372
REMARK  147  A    between atoms: _374  and  _376
REMARK  148  A    between atoms: _376  and  _377
REMARK  149  A    between atoms: _379  and  _381
REMARK  150  A    between atoms: _381  and  _382
REMARK  151  A    between atoms: _381  and  _384
REMARK  152  A    between atoms: _387  and  _389
REMARK  153  A    between atoms: _389  and  _390
REMARK  154  A    between atoms: _389  and  _392
REMARK  155  A    between atoms: _392  and  _393
REMARK  156  A    between atoms: _396  and  _398
REMARK  157  A    between atoms: _398  and  _399
REMARK  158  A    between atoms: _398  and  _401
REMARK  159  A    between atoms: _401  and  _402
REMARK  160  A    between atoms: _407  and  _408
REMARK  161  A    between atoms: _410  and  _412
REMARK  162  A    between atoms: _412  and  _413
REMARK  163  A    between atoms: _412  and  _415
REMARK  164  A    between atoms: _415  and  _416
REMARK  165  A    between atoms: _422  and  _424
REMARK  166  A    between atoms: _424  and  _425
REMARK  167  A    between atoms: _424  and  _427
REMARK  168  A    between atoms: _427  and  _428
REMARK  169  A    between atoms: _428  and  _429
REMARK  170  A    between atoms: _434  and  _436
REMARK  171  A    between atoms: _436  and  _437
REMARK  172  A    between atoms: _436  and  _439
REMARK  173  A    between atoms: _439  and  _440
REMARK  174  A    between atoms: _445  and  _446
REMARK  175  A    between atoms: _448  and  _450
REMARK  176  A    between atoms: _450  and  _451
REMARK  177  A    between atoms: _454  and  _456
REMARK  178  A    between atoms: _456  and  _457
REMARK  179  A    between atoms: _456  and  _459
REMARK  180  A    between atoms: _459  and  _460
REMARK  181  A    between atoms: _466  and  _468
REMARK  182  A    between atoms: _468  and  _469
REMARK  183  A    between atoms: _468  and  _471
REMARK  184  A    between atoms: _471  and  _472
REMARK  185  A    between atoms: _474  and  _476
REMARK  186  A    between atoms: _476  and  _477
REMARK  187  A    between atoms: _476  and  _479
REMARK  188  A    between atoms: _479  and  _480
REMARK  189  A    between atoms: _483  and  _485
REMARK  190  A    between atoms: _485  and  _486
REMARK  191  A    between atoms: _485  and  _488
REMARK  192  A    between atoms: _488  and  _489
REMARK  193  A    between atoms: _493  and  _494
REMARK  194  A    between atoms: _499  and  _501
REMARK  195  A    between atoms: _501  and  _502
REMARK  196  A    between atoms: _505  and  _507
REMARK  197  A    between atoms: _507  and  _508
REMARK  198  A    between atoms: _507  and  _510
REMARK  199  A    between atoms: _510  and  _511
REMARK  200  A    between atoms: _514  and  _516
REMARK  201  A    between atoms: _516  and  _517
REMARK  202  A    between atoms: _516  and  _519
REMARK  203  A    between atoms: _519  and  _520
REMARK  204  A    between atoms: _530  and  _532
REMARK  205  A    between atoms: _532  and  _533
REMARK  206  A    between atoms: _532  and  _535
REMARK  207  A    between atoms: _535  and  _536
REMARK  208  A    between atoms: _536  and  _537
REMARK  209  A    between atoms: _539  and  _541
REMARK  210  A    between atoms: _541  and  _542
REMARK  211  A    between atoms: _541  and  _544
REMARK  212  A    between atoms: _544  and  _545
REMARK  213  A    between atoms: _548  and  _550
REMARK  214  A    between atoms: _550  and  _551
REMARK  215  A    between atoms: _550  and  _553
REMARK  216  A    between atoms: _553  and  _554
REMARK  217  A    between atoms: _557  and  _559
REMARK  218  A    between atoms: _559  and  _560
REMARK  219  A    between atoms: _563  and  _565
REMARK  220  A    between atoms: _565  and  _566
REMARK  221  A    between atoms: _568  and  _570
REMARK  222  A    between atoms: _570  and  _571
REMARK  223  A    between atoms: _570  and  _573
REMARK  224  A    between atoms: _573  and  _574
REMARK  225  A    between atoms: _579  and  _581
REMARK  226  A    between atoms: _581  and  _582
REMARK  227  A    between atoms: _581  and  _584
REMARK  228  A    between atoms: _584  and  _585
REMARK                            x       y       z     vdW  Elec       q    Type
REMARK                         _______ _______ _______ _____ _____    ______ ____
ROOT
ATOM      1  CB  ARG A   2     -28.647  11.759 -16.386  0.00  0.00    +0.031 C 
ENDROOT
BRANCH   1   2
ATOM      2  CA  ARG A   2     -27.824  11.666 -17.669  0.00  0.00    +0.137 C 
BRANCH   2   4
ATOM      3  C   GLY A   1     -26.905  13.168 -19.347  0.00  0.00    +0.240 C 
ATOM      4  N   ARG A   2     -27.678  12.980 -18.281  0.00  0.00    -0.298 N 
ATOM      5  H   ARG A   2     -28.190  13.789 -17.875  0.00  0.00    +0.150 HD
ATOM      6  O   GLY A   1     -26.243  12.267 -19.864  0.00  0.00    -0.274 OA
BRANCH   3   7
ATOM      7  CA  GLY A   1     -26.877  14.576 -19.909  0.00  0.00    +0.169 C 
BRANCH   7   8
ATOM      8  N   GLY A   1     -28.209  15.149 -19.953  0.00  0.00    -0.236 NA
ATOM      9  H   GLY A   1     -28.418  15.990 -19.378  0.00  0.00    +0.142 HD
ENDBRANCH   7   8
ENDBRANCH   3   7
ENDBRANCH   2   4
BRANCH   2  10
ATOM     10  C   ARG A   2     -28.495  10.699 -18.634  0.00  0.00    +0.227 C 
ATOM     11  O   ARG A   2     -28.120   9.528 -18.715  0.00  0.00    -0.286 OA
ENDBRANCH   2  10
ENDBRANCH   1   2
BRANCH   1  12
ATOM     12  CG  ARG A   2     -28.761  10.435 -15.647  0.00  0.00    +0.045 C 
BRANCH  12  13
ATOM     13  CD  ARG A   2     -29.571  10.565 -14.372  0.00  0.00    +0.174 C 
BRANCH  13  14
ATOM     14  NE  ARG A   2     -29.518   9.331 -13.587  0.00  0.00    -0.265 N 
ATOM     15  CZ  ARG A   2     -29.252   9.260 -12.283  0.00  0.00    +0.342 C 
ATOM     16  NH2 ARG A   2     -29.016  10.356 -11.569  0.00  0.00    -0.292 N 
ATOM     17 HH21 ARG A   2     -28.810  10.280 -10.552  0.00  0.00    +0.255 HD
ATOM     18 HH22 ARG A   2     -29.037  11.290 -12.027  0.00  0.00    +0.255 HD
ATOM     19  NH1 ARG A   2     -29.229   8.078 -11.684  0.00  0.00    -0.292 N 
ATOM     20 HH11 ARG A   2     -29.022   8.014 -10.667  0.00  0.00    +0.255 HD
ATOM     21 HH12 ARG A   2     -29.418   7.214 -12.231  0.00  0.00    +0.255 HD
ATOM     22  HE  ARG A   2     -29.703   8.438 -14.087  0.00  0.00    +0.259 HD
ENDBRANCH  13  14
ENDBRANCH  12  13
ENDBRANCH   1  12
TORSDOF 8
REMARK  Name = ../refined-set-2016/4c1u/4c1u_pocket.pdb
REMARK  228 active torsions:
REMARK  status: ('A' for Active; 'I' for Inactive)
REMARK    1  A    between atoms: _1  and  _3
REMARK    2  A    between atoms: _3  and  _4
REMARK    3  A    between atoms: _3  and  _6
REMARK    4  A    between atoms: _6  and  _7
REMARK    5  A    between atoms: _12  and  _14
REMARK    6  A    between atoms: _14  and  _15
REMARK    7  A    between atoms: _14  and  _17
REMARK    8  A    between atoms: _17  and  _18
REMARK    9  A    between atoms: _23  and  _25
REMARK   10  A    between atoms: _25  and  _26
REMARK   11  A    between atoms: _29  and  _31
REMARK   12  A    between atoms: _31  and  _32
REMARK   13  A    between atoms: _31  and  _34
REMARK   14  A    between atoms: _34  and  _35
REMARK   15  A    between atoms: _37  and  _39
REMARK   16  A    between atoms: _39  and  _40
REMARK   17  A    between atoms: _43  and  _45
REMARK   18  A    between atoms: _45  and  _46
REMARK   19  A    between atoms: _48  and  _50
REMARK   20  A    between atoms: _50  and  _51
REMARK   21  A    between atoms: _50  and  _53
REMARK   22  A    between atoms: _53  and  _54
REMARK   23  A    between atoms: _54  and  _55
REMARK   24  A    between atoms: _55  and  _56
REMARK   25  A    between atoms: _65  and  _67
REMARK   26  A    between atoms: _67  and  _68
REMARK   27  A    between atoms: _67  and  _70
REMARK   28  A    between atoms: _70  and  _71
REMARK   29  A    between atoms: _81  and  _83
REMARK   30  A    between atoms: _83  and  _84
REMARK   31  A    between atoms: _83  and  _86
REMARK   32  A    between atoms: _86  and  _87
REMARK   33  A    between atoms: _90  and  _92
REMARK   34  A    between atoms: _92  and  _93
REMARK   35  A    between atoms: _92  and  _95
REMARK   36  A    between atoms: _95  and  _96
REMARK   37  A    between atoms: _96  and  _97
REMARK   38  A    between atoms: _102  and  _104
REMARK   39  A    between atoms: _104  and  _105
REMARK   40  A    between atoms: _104  and  _107
REMARK   41  A    between atoms: _107  and  _108
REMARK   42  A    between atoms: _113  and  _115
REMARK   43  A    between atoms: _115  and  _116
REMARK   44  A    between atoms: _115  and  _118
REMARK   45  A    between atoms: _118  and  _119
REMARK   46  A    between atoms: _119  and  _120
REMARK   47  A    between atoms: _123  and  _125
REMARK   48  A    between atoms: _125  and  _126
REMARK   49  A    between atoms: _125  and  _128
REMARK   50  A    between atoms: _128  and  _129
REMARK   51  A    between atoms: _135  and  _137
REMARK   52  A    between atoms: _137  and  _138
REMARK   53  A    between atoms: _141  and  _143
REMARK   54  A    between atoms: _143  and  _144
REMARK   55  A    between atoms: _143  and  _146
REMARK   56  A    between atoms: _146  and  _147
REMARK   57  A    between atoms: _147  and  _148
REMARK   58  A    between atoms: _150  and  _152
REMARK   59  A    between atoms: _152  and  _153
REMARK   60  A    between atoms: _152  and  _155
REMARK   61  A    between atoms: _155  and  _156
REMARK   62  A    between atoms: _158  and  _160
REMARK   63  A    between atoms: _160  and  _161
REMARK   64  A    between atoms: _160  and  _163
REMARK   65  A    between atoms: _163  and  _164
REMARK   66  A    between atoms: _167  and  _169
REMARK   67  A    between atoms: _169  and  _170
REMARK   68  A    between atoms: _169  and  _172
REMARK   69  A    between atoms: _172  and  _173
REMARK   70  A    between atoms: _173  and  _174
REMARK   71  A    between atoms: _174  and  _175
REMARK   72  A    between atoms: _175  and  _176
REMARK   73  A    between atoms: _180  and  _182
REMARK   74  A    between atoms: _182  and  _183
REMARK   75  A    between atoms: _182  and  _185
REMARK   76  A    between atoms: _188  and  _190
REMARK   77  A    between atoms: _190  and  _191
REMARK   78  A    between atoms: _190  and  _193
REMARK   79  A    between atoms: _193  and  _194
REMARK   80  A    between atoms: _196  and  _198
REMARK   81  A    between atoms: _198  and  _199
REMARK   82  A    between atoms: _198  and  _201
REMARK   83  A    between atoms: _204  and  _206
REMARK   84  A    between atoms: _206  and  _207
REMARK   85  A    between atoms: _206  and  _209
REMARK   86  A    between atoms: _209  and  _210
REMARK   87  A    between atoms: _210  and  _211
REMARK   88  A    between atoms: _214  and  _216
REMARK   89  A    between atoms: _216  and  _217
REMARK   90  A    between atoms: _216  and  _219
REMARK   91  A    between atoms: _219  and  _220
REMARK   92  A    between atoms: _223  and  _225
REMARK   93  A    between atoms: _225  and  _226
REMARK   94  A    between atoms: _229  and  _231
REMARK   95  A    between atoms: _231  and  _232
REMARK   96  A    between atoms: _231  and  _234
REMARK   97  A    between atoms: _234  and  _235
REMARK   98  A    between atoms: _246  and  _247
REMARK   99  A    between atoms: _252  and  _254
REMARK  100  A    between atoms: _254  and  _255
REMARK  101  A    between atoms: _258  and  _260
REMARK  102  A    between atoms: _260  and  _261
REMARK  103  A    between atoms: _260  and  _263
REMARK  104  A    between atoms: _263  and  _264
REMARK  105  A    between atoms: _269  and  _271
REMARK  106  A    between atoms: _271  and  _272
REMARK  107  A    between atoms: _271  and  _274
REMARK  108  A    between atoms: _274  and  _275
REMARK  109  A    between atoms: _280  and  _281
REMARK  110  A    between atoms: _283  and  _285
REMARK  111  A    between atoms: _285  and  _286
REMARK  112  A    between atoms: _289  and  _291
REMARK  113  A    between atoms: _291  and  _292
REMARK  114  A    between atoms: _291  and  _294
REMARK  115  A    between atoms: _294  and  _295
REMARK  116  A    between atoms: _295  and  _296
REMARK  117  A    between atoms: _301  and  _303
REMARK  118  A    between atoms: _303  and  _304
REMARK  119  A    between atoms: _303  and  _306
REMARK  120  A    between atoms: _306  and  _307
REMARK  121  A    between atoms: _307  and  _308
REMARK  122  A    between atoms: _310  and  _312
REMARK  123  A    between atoms: _312  and  _313
REMARK  124  A    between atoms: _315  and  _317
REMARK  125  A    between atoms: _317  and  _318
REMARK  126  A    between atoms: _321  and  _323
REMARK  127  A    between atoms: _323  and  _324
REMARK  128  A    between atoms: _323  and  _326
REMARK  129  A    between atoms: _326  and  _327
REMARK  130  A    between atoms: _337  and  _339
REMARK  131  A    between atoms: _339  and  _340
REMARK  132  A    between atoms: _339  and  _342
REMARK  133  A    between atoms: _342  and  _343
REMARK  134  A    between atoms: _343  and  _344
REMARK  135  A    between atoms: _347  and  _349
REMARK  136  A    between atoms: _349  and  _350
REMARK  137  A    between atoms: _352  and  _354
REMARK  138  A    between atoms: _354  and  _355
REMARK  139  A    between atoms: _354  and  _357
REMARK  140  A    between atoms: _360  and  _362
REMARK  141  A    between atoms: _362  and  _363
REMARK  142  A    between atoms: _362  and  _365
REMARK  143  A    between atoms: _365  and  _366
REMARK  144  A    between atoms: _366  and  _367
REMARK  145  A    between atoms: _369  and  _371
REMARK  146  A    between atoms: _371  and  _372
REMARK  147  A    between atoms: _374  and  _376
REMARK  148  A    between atoms: _376  and  _377
REMARK  149  A    between atoms: _379  and  _381
REMARK  150  A    between atoms: _381  and  _382
REMARK  151  A    between atoms: _381  and  _384
REMARK  152  A    between atoms: _387  and  _389
REMARK  153  A    between atoms: _389  and  _390
REMARK  154  A    between atoms: _389  and  _392
REMARK  155  A    between atoms: _392  and  _393
REMARK  156  A    between atoms: _396  and  _398
REMARK  157  A    between atoms: _398  and  _399
REMARK  158  A    between atoms: _398  and  _401
REMARK  159  A    between atoms: _401  and  _402
REMARK  160  A    between atoms: _407  and  _408
REMARK  161  A    between atoms: _410  and  _412
REMARK  162  A    between atoms: _412  and  _413
REMARK  163  A    between atoms: _412  and  _415
REMARK  164  A    between atoms: _415  and  _416
REMARK  165  A    between atoms: _422  and  _424
REMARK  166  A    between atoms: _424  and  _425
REMARK  167  A    between atoms: _424  and  _427
REMARK  168  A    between atoms: _427  and  _428
REMARK  169  A    between atoms: _428  and  _429
REMARK  170  A    between atoms: _434  and  _436
REMARK  171  A    between atoms: _436  and  _437
REMARK  172  A    between atoms: _436  and  _439
REMARK  173  A    between atoms: _439  and  _440
REMARK  174  A    between atoms: _445  and  _446
REMARK  175  A    between atoms: _448  and  _450
REMARK  176  A    between atoms: _450  and  _451
REMARK  177  A    between atoms: _454  and  _456
REMARK  178  A    between atoms: _456  and  _457
REMARK  179  A    between atoms: _456  and  _459
REMARK  180  A    between atoms: _459  and  _460
REMARK  181  A    between atoms: _466  and  _468
REMARK  182  A    between atoms: _468  and  _469
REMARK  183  A    between atoms: _468  and  _471
REMARK  184  A    between atoms: _471  and  _472
REMARK  185  A    between atoms: _474  and  _476
REMARK  186  A    between atoms: _476  and  _477
REMARK  187  A    between atoms: _476  and  _479
REMARK  188  A    between atoms: _479  and  _480
REMARK  189  A    between atoms: _483  and  _485
REMARK  190  A    between atoms: _485  and  _486
REMARK  191  A    between atoms: _485  and  _488
REMARK  192  A    between atoms: _488  and  _489
REMARK  193  A    between atoms: _493  and  _494
REMARK  194  A    between atoms: _499  and  _501
REMARK  195  A    between atoms: _501  and  _502
REMARK  196  A    between atoms: _505  and  _507
REMARK  197  A    between atoms: _507  and  _508
REMARK  198  A    between atoms: _507  and  _510
REMARK  199  A    between atoms: _510  and  _511
REMARK  200  A    between atoms: _514  and  _516
REMARK  201  A    between atoms: _516  and  _517
REMARK  202  A    between atoms: _516  and  _519
REMARK  203  A    between atoms: _519  and  _520
REMARK  204  A    between atoms: _530  and  _532
REMARK  205  A    between atoms: _532  and  _533
REMARK  206  A    between atoms: _532  and  _535
REMARK  207  A    between atoms: _535  and  _536
REMARK  208  A    between atoms: _536  and  _537
REMARK  209  A    between atoms: _539  and  _541
REMARK  210  A    between atoms: _541  and  _542
REMARK  211  A    between atoms: _541  and  _544
REMARK  212  A    between atoms: _544  and  _545
REMARK  213  A    between atoms: _548  and  _550
REMARK  214  A    between atoms: _550  and  _551
REMARK  215  A    between atoms: _550  and  _553
REMARK  216  A    between atoms: _553  and  _554
REMARK  217  A    between atoms: _557  and  _559
REMARK  218  A    between atoms: _559  and  _560
REMARK  219  A    between atoms: _563  and  _565
REMARK  220  A    between atoms: _565  and  _566
REMARK  221  A    between atoms: _568  and  _570
REMARK  222  A    between atoms: _570  and  _571
REMARK  223  A    between atoms: _570  and  _573
REMARK  224  A    between atoms: _573  and  _574
REMARK  225  A    between atoms: _579  and  _581
REMARK  226  A    between atoms: _581  and  _582
REMARK  227  A    between atoms: _581  and  _584
REMARK  228  A    between atoms: _584  and  _585
REMARK                            x       y       z     vdW  Elec       q    Type
REMARK                         _______ _______ _______ _____ _____    ______ ____
ROOT
ATOM      1  CG  TRP A   1     -23.440   9.493 -19.985  0.00  0.00    -0.002 A 
ATOM      2  CD1 TRP A   1     -23.330  10.592 -19.185  0.00  0.00    +0.068 A 
ATOM      3  NE1 TRP A   1     -22.179  11.283 -19.481  0.00  0.00    -0.352 N 
ATOM      4  HE1 TRP A   1     -21.860  12.155 -19.012  0.00  0.00    +0.166 HD
ATOM      5  CE2 TRP A   1     -21.520  10.638 -20.493  0.00  0.00    +0.056 A 
ATOM      6  CZ2 TRP A   1     -20.318  10.955 -21.130  0.00  0.00    +0.017 A 
ATOM      7  CH2 TRP A   1     -19.888  10.116 -22.123  0.00  0.00    +0.001 A 
ATOM      8  CZ3 TRP A   1     -20.625   8.979 -22.489  0.00  0.00    +0.000 A 
ATOM      9  CE3 TRP A   1     -21.819   8.662 -21.856  0.00  0.00    +0.001 A 
ATOM     10  CD2 TRP A   1     -22.282   9.502 -20.837  0.00  0.00    +0.013 A 
ENDROOT
BRANCH   1  11
ATOM     11  CB  TRP A   1     -24.552   8.468 -19.967  0.00  0.00    +0.053 C 
BRANCH  11  12
ATOM     12  CA  TRP A   1     -25.252   8.261 -21.313  0.00  0.00    +0.137 C 
BRANCH  12  13
ATOM     13  N   TRP A   1     -26.129   9.383 -21.620  0.00  0.00    -0.239 NA
ATOM     14  H   TRP A   1     -26.290  10.116 -20.900  0.00  0.00    +0.142 HD
ENDBRANCH  12  13
BRANCH  12  15
ATOM     15  C   TRP A   1     -26.025   6.942 -21.307  0.00  0.00    +0.224 C 
ATOM     16  O   TRP A   1     -25.518   5.919 -21.764  0.00  0.00    -0.287 OA
ENDBRANCH  12  15
ENDBRANCH  11  12
ENDBRANCH   1  11
TORSDOF 4
REMARK  Name = ../refined-set-2016/4c1u/4c1u_pocket.pdb
REMARK  228 active torsions:
REMARK  status: ('A' for Active; 'I' for Inactive)
REMARK    1  A    between atoms: _1  and  _3
REMARK    2  A    between atoms: _3  and  _4
REMARK    3  A    between atoms: _3  and  _6
REMARK    4  A    between atoms: _6  and  _7
REMARK    5  A    between atoms: _12  and  _14
REMARK    6  A    between atoms: _14  and  _15
REMARK    7  A    between atoms: _14  and  _17
REMARK    8  A    between atoms: _17  and  _18
REMARK    9  A    between atoms: _23  and  _25
REMARK   10  A    between atoms: _25  and  _26
REMARK   11  A    between atoms: _29  and  _31
REMARK   12  A    between atoms: _31  and  _32
REMARK   13  A    between atoms: _31  and  _34
REMARK   14  A    between atoms: _34  and  _35
REMARK   15  A    between atoms: _37  and  _39
REMARK   16  A    between atoms: _39  and  _40
REMARK   17  A    between atoms: _43  and  _45
REMARK   18  A    between atoms: _45  and  _46
REMARK   19  A    between atoms: _48  and  _50
REMARK   20  A    between atoms: _50  and  _51
REMARK   21  A    between atoms: _50  and  _53
REMARK   22  A    between atoms: _53  and  _54
REMARK   23  A    between atoms: _54  and  _55
REMARK   24  A    between atoms: _55  and  _56
REMARK   25  A    between atoms: _65  and  _67
REMARK   26  A    between atoms: _67  and  _68
REMARK   27  A    between atoms: _67  and  _70
REMARK   28  A    between atoms: _70  and  _71
REMARK   29  A    between atoms: _81  and  _83
REMARK   30  A    between atoms: _83  and  _84
REMARK   31  A    between atoms: _83  and  _86
REMARK   32  A    between atoms: _86  and  _87
REMARK   33  A    between atoms: _90  and  _92
REMARK   34  A    between atoms: _92  and  _93
REMARK   35  A    between atoms: _92  and  _95
REMARK   36  A    between atoms: _95  and  _96
REMARK   37  A    between atoms: _96  and  _97
REMARK   38  A    between atoms: _102  and  _104
REMARK   39  A    between atoms: _104  and  _105
REMARK   40  A    between atoms: _104  and  _107
REMARK   41  A    between atoms: _107  and  _108
REMARK   42  A    between atoms: _113  and  _115
REMARK   43  A    between atoms: _115  and  _116
REMARK   44  A    between atoms: _115  and  _118
REMARK   45  A    between atoms: _118  and  _119
REMARK   46  A    between atoms: _119  and  _120
REMARK   47  A    between atoms: _123  and  _125
REMARK   48  A    between atoms: _125  and  _126
REMARK   49  A    between atoms: _125  and  _128
REMARK   50  A    between atoms: _128  and  _129
REMARK   51  A    between atoms: _135  and  _137
REMARK   52  A    between atoms: _137  and  _138
REMARK   53  A    between atoms: _141  and  _143
REMARK   54  A    between atoms: _143  and  _144
REMARK   55  A    between atoms: _143  and  _146
REMARK   56  A    between atoms: _146  and  _147
REMARK   57  A    between atoms: _147  and  _148
REMARK   58  A    between atoms: _150  and  _152
REMARK   59  A    between atoms: _152  and  _153
REMARK   60  A    between atoms: _152  and  _155
REMARK   61  A    between atoms: _155  and  _156
REMARK   62  A    between atoms: _158  and  _160
REMARK   63  A    between atoms: _160  and  _161
REMARK   64  A    between atoms: _160  and  _163
REMARK   65  A    between atoms: _163  and  _164
REMARK   66  A    between atoms: _167  and  _169
REMARK   67  A    between atoms: _169  and  _170
REMARK   68  A    between atoms: _169  and  _172
REMARK   69  A    between atoms: _172  and  _173
REMARK   70  A    between atoms: _173  and  _174
REMARK   71  A    between atoms: _174  and  _175
REMARK   72  A    between atoms: _175  and  _176
REMARK   73  A    between atoms: _180  and  _182
REMARK   74  A    between atoms: _182  and  _183
REMARK   75  A    between atoms: _182  and  _185
REMARK   76  A    between atoms: _188  and  _190
REMARK   77  A    between atoms: _190  and  _191
REMARK   78  A    between atoms: _190  and  _193
REMARK   79  A    between atoms: _193  and  _194
REMARK   80  A    between atoms: _196  and  _198
REMARK   81  A    between atoms: _198  and  _199
REMARK   82  A    between atoms: _198  and  _201
REMARK   83  A    between atoms: _204  and  _206
REMARK   84  A    between atoms: _206  and  _207
REMARK   85  A    between atoms: _206  and  _209
REMARK   86  A    between atoms: _209  and  _210
REMARK   87  A    between atoms: _210  and  _211
REMARK   88  A    between atoms: _214  and  _216
REMARK   89  A    between atoms: _216  and  _217
REMARK   90  A    between atoms: _216  and  _219
REMARK   91  A    between atoms: _219  and  _220
REMARK   92  A    between atoms: _223  and  _225
REMARK   93  A    between atoms: _225  and  _226
REMARK   94  A    between atoms: _229  and  _231
REMARK   95  A    between atoms: _231  and  _232
REMARK   96  A    between atoms: _231  and  _234
REMARK   97  A    between atoms: _234  and  _235
REMARK   98  A    between atoms: _246  and  _247
REMARK   99  A    between atoms: _252  and  _254
REMARK  100  A    between atoms: _254  and  _255
REMARK  101  A    between atoms: _258  and  _260
REMARK  102  A    between atoms: _260  and  _261
REMARK  103  A    between atoms: _260  and  _263
REMARK  104  A    between atoms: _263  and  _264
REMARK  105  A    between atoms: _269  and  _271
REMARK  106  A    between atoms: _271  and  _272
REMARK  107  A    between atoms: _271  and  _274
REMARK  108  A    between atoms: _274  and  _275
REMARK  109  A    between atoms: _280  and  _281
REMARK  110  A    between atoms: _283  and  _285
REMARK  111  A    between atoms: _285  and  _286
REMARK  112  A    between atoms: _289  and  _291
REMARK  113  A    between atoms: _291  and  _292
REMARK  114  A    between atoms: _291  and  _294
REMARK  115  A    between atoms: _294  and  _295
REMARK  116  A    between atoms: _295  and  _296
REMARK  117  A    between atoms: _301  and  _303
REMARK  118  A    between atoms: _303  and  _304
REMARK  119  A    between atoms: _303  and  _306
REMARK  120  A    between atoms: _306  and  _307
REMARK  121  A    between atoms: _307  and  _308
REMARK  122  A    between atoms: _310  and  _312
REMARK  123  A    between atoms: _312  and  _313
REMARK  124  A    between atoms: _315  and  _317
REMARK  125  A    between atoms: _317  and  _318
REMARK  126  A    between atoms: _321  and  _323
REMARK  127  A    between atoms: _323  and  _324
REMARK  128  A    between atoms: _323  and  _326
REMARK  129  A    between atoms: _326  and  _327
REMARK  130  A    between atoms: _337  and  _339
REMARK  131  A    between atoms: _339  and  _340
REMARK  132  A    between atoms: _339  and  _342
REMARK  133  A    between atoms: _342  and  _343
REMARK  134  A    between atoms: _343  and  _344
REMARK  135  A    between atoms: _347  and  _349
REMARK  136  A    between atoms: _349  and  _350
REMARK  137  A    between atoms: _352  and  _354
REMARK  138  A    between atoms: _354  and  _355
REMARK  139  A    between atoms: _354  and  _357
REMARK  140  A    between atoms: _360  and  _362
REMARK  141  A    between atoms: _362  and  _363
REMARK  142  A    between atoms: _362  and  _365
REMARK  143  A    between atoms: _365  and  _366
REMARK  144  A    between atoms: _366  and  _367
REMARK  145  A    between atoms: _369  and  _371
REMARK  146  A    between atoms: _371  and  _372
REMARK  147  A    between atoms: _374  and  _376
REMARK  148  A    between atoms: _376  and  _377
REMARK  149  A    between atoms: _379  and  _381
REMARK  150  A    between atoms: _381  and  _382
REMARK  151  A    between atoms: _381  and  _384
REMARK  152  A    between atoms: _387  and  _389
REMARK  153  A    between atoms: _389  and  _390
REMARK  154  A    between atoms: _389  and  _392
REMARK  155  A    between atoms: _392  and  _393
REMARK  156  A    between atoms: _396  and  _398
REMARK  157  A    between atoms: _398  and  _399
REMARK  158  A    between atoms: _398  and  _401
REMARK  159  A    between atoms: _401  and  _402
REMARK  160  A    between atoms: _407  and  _408
REMARK  161  A    between atoms: _410  and  _412
REMARK  162  A    between atoms: _412  and  _413
REMARK  163  A    between atoms: _412  and  _415
REMARK  164  A    between atoms: _415  and  _416
REMARK  165  A    between atoms: _422  and  _424
REMARK  166  A    between atoms: _424  and  _425
REMARK  167  A    between atoms: _424  and  _427
REMARK  168  A    between atoms: _427  and  _428
REMARK  169  A    between atoms: _428  and  _429
REMARK  170  A    between atoms: _434  and  _436
REMARK  171  A    between atoms: _436  and  _437
REMARK  172  A    between atoms: _436  and  _439
REMARK  173  A    between atoms: _439  and  _440
REMARK  174  A    between atoms: _445  and  _446
REMARK  175  A    between atoms: _448  and  _450
REMARK  176  A    between atoms: _450  and  _451
REMARK  177  A    between atoms: _454  and  _456
REMARK  178  A    between atoms: _456  and  _457
REMARK  179  A    between atoms: _456  and  _459
REMARK  180  A    between atoms: _459  and  _460
REMARK  181  A    between atoms: _466  and  _468
REMARK  182  A    between atoms: _468  and  _469
REMARK  183  A    between atoms: _468  and  _471
REMARK  184  A    between atoms: _471  and  _472
REMARK  185  A    between atoms: _474  and  _476
REMARK  186  A    between atoms: _476  and  _477
REMARK  187  A    between atoms: _476  and  _479
REMARK  188  A    between atoms: _479  and  _480
REMARK  189  A    between atoms: _483  and  _485
REMARK  190  A    between atoms: _485  and  _486
REMARK  191  A    between atoms: _485  and  _488
REMARK  192  A    between atoms: _488  and  _489
REMARK  193  A    between atoms: _493  and  _494
REMARK  194  A    between atoms: _499  and  _501
REMARK  195  A    between atoms: _501  and  _502
REMARK  196  A    between atoms: _505  and  _507
REMARK  197  A    between atoms: _507  and  _508
REMARK  198  A    between atoms: _507  and  _510
REMARK  199  A    between atoms: _510  and  _511
REMARK  200  A    between atoms: _514  and  _516
REMARK  201  A    between atoms: _516  and  _517
REMARK  202  A    between atoms: _516  and  _519
REMARK  203  A    between atoms: _519  and  _520
REMARK  204  A    between atoms: _530  and  _532
REMARK  205  A    between atoms: _532  and  _533
REMARK  206  A    between atoms: _532  and  _535
REMARK  207  A    between atoms: _535  and  _536
REMARK  208  A    between atoms: _536  and  _537
REMARK  209  A    between atoms: _539  and  _541
REMARK  210  A    between atoms: _541  and  _542
REMARK  211  A    between atoms: _541  and  _544
REMARK  212  A    between atoms: _544  and  _545
REMARK  213  A    between atoms: _548  and  _550
REMARK  214  A    between atoms: _550  and  _551
REMARK  215  A    between atoms: _550  and  _553
REMARK  216  A    between atoms: _553  and  _554
REMARK  217  A    between atoms: _557  and  _559
REMARK  218  A    between atoms: _559  and  _560
REMARK  219  A    between atoms: _563  and  _565
REMARK  220  A    between atoms: _565  and  _566
REMARK  221  A    between atoms: _568  and  _570
REMARK  222  A    between atoms: _570  and  _571
REMARK  223  A    between atoms: _570  and  _573
REMARK  224  A    between atoms: _573  and  _574
REMARK  225  A    between atoms: _579  and  _581
REMARK  226  A    between atoms: _581  and  _582
REMARK  227  A    between atoms: _581  and  _584
REMARK  228  A    between atoms: _584  and  _585
REMARK                            x       y       z     vdW  Elec       q    Type
REMARK                         _______ _______ _______ _____ _____    ______ ____
ROOT
ATOM      1  C   GLN A   2     -21.709  14.712  -8.615  0.00  0.00    +0.241 C 
ATOM      2  O   GLN A   2     -20.800  14.178  -7.977  0.00  0.00    -0.273 OA
ATOM      3  N   ASN A   3     -21.521  15.774  -9.393  0.00  0.00    -0.297 N 
ATOM      4  H   ASN A   3     -22.350  16.270  -9.778  0.00  0.00    +0.150 HD
ENDROOT
BRANCH   1   5
ATOM      5  CA  GLN A   2     -23.131  14.156  -8.556  0.00  0.00    +0.149 C 
BRANCH   5   7
ATOM      6  C   ILE A   1     -22.577  12.140  -9.782  0.00  0.00    +0.238 C 
ATOM      7  N   GLN A   2     -23.065  12.708  -8.685  0.00  0.00    -0.297 N 
ATOM      8  H   GLN A   2     -23.405  12.109  -7.906  0.00  0.00    +0.150 HD
ATOM      9  O   ILE A   1     -22.223  12.789 -10.761  0.00  0.00    -0.274 OA
BRANCH   6  10
ATOM     10  CA  ILE A   1     -22.489  10.618  -9.781  0.00  0.00    +0.145 C 
BRANCH  10  11
ATOM     11  N   ILE A   1     -22.968  10.076 -11.046  0.00  0.00    -0.238 NA
ATOM     12  H   ILE A   1     -22.424  10.264 -11.912  0.00  0.00    +0.142 HD
ENDBRANCH  10  11
BRANCH  10  13
ATOM     13  CB  ILE A   1     -21.036  10.162  -9.524  0.00  0.00    +0.025 C 
ATOM     14  CG2 ILE A   1     -20.504  10.735  -8.218  0.00  0.00    +0.002 C 
BRANCH  13  15
ATOM     15  CG1 ILE A   1     -20.973   8.632  -9.491  0.00  0.00    +0.002 C 
ATOM     16  CD1 ILE A   1     -19.574   8.060  -9.547  0.00  0.00    +0.000 C 
ENDBRANCH  13  15
ENDBRANCH  10  13
ENDBRANCH   6  10
ENDBRANCH   5   7
BRANCH   5  17
ATOM     17  CB  GLN A   2     -23.825  14.543  -7.251  0.00  0.00    +0.039 C 
BRANCH  17  18
ATOM     18  CG  GLN A   2     -24.574  15.861  -7.323  0.00  0.00    +0.087 C 
BRANCH  18  19
ATOM     19  CD  GLN A   2     -23.647  17.039  -7.530  0.00  0.00    +0.219 C 
ATOM     20  OE1 GLN A   2     -22.617  17.152  -6.867  0.00  0.00    -0.275 OA
ATOM     21  NE2 GLN A   2     -24.002  17.917  -8.461  0.00  0.00    -0.329 N 
ATOM     22 HE21 GLN A   2     -23.399  18.742  -8.654  0.00  0.00    +0.145 HD
ATOM     23 HE22 GLN A   2     -24.883  17.779  -8.997  0.00  0.00    +0.145 HD
ENDBRANCH  18  19
ENDBRANCH  17  18
ENDBRANCH   5  17
ENDBRANCH   1   5
BRANCH   3  24
ATOM     24  CA  ASN A   3     -20.183  16.265  -9.723  0.00  0.00    +0.158 C 
BRANCH  24  25
ATOM     25  C   ASN A   3     -19.289  16.516  -8.513  0.00  0.00    +0.241 C 
ATOM     26  N   GLU A   4     -19.864  17.066  -7.450  0.00  0.00    -0.298 N 
ATOM     27  H   GLU A   4     -20.891  17.228  -7.453  0.00  0.00    +0.150 HD
ATOM     28  O   ASN A   3     -18.100  16.205  -8.541  0.00  0.00    -0.273 OA
BRANCH  26  29
ATOM     29  CA  GLU A   4     -19.084  17.448  -6.277  0.00  0.00    +0.137 C 
BRANCH  29  30
ATOM     30  C   GLU A   4     -18.615  16.237  -5.470  0.00  0.00    +0.227 C 
ATOM     31  O   GLU A   4     -17.735  16.360  -4.617  0.00  0.00    -0.286 OA
ENDBRANCH  29  30
BRANCH  29  32
ATOM     32  CB  GLU A   4     -19.899  18.394  -5.391  0.00  0.00    +0.039 C 
BRANCH  32  33
ATOM     33  CG  GLU A   4     -20.508  19.567  -6.150  0.00  0.00    +0.116 C 
BRANCH  33  34
ATOM     34  CD  GLU A   4     -19.503  20.270  -7.046  0.00  0.00    +0.365 C 
ATOM     35  OE2 GLU A   4     -18.418  20.642  -6.549  0.00  0.00    -0.246 OA
ATOM     36  OE1 GLU A   4     -19.793  20.444  -8.251  0.00  0.00    -0.246 OA
ENDBRANCH  33  34
ENDBRANCH  32  33
ENDBRANCH  29  32
ENDBRANCH  26  29
ENDBRANCH  24  25
BRANCH  24  37
ATOM     37  CB  ASN A   3     -20.279  17.544 -10.556  0.00  0.00    +0.114 C 
BRANCH  37  38
ATOM     38  CG  ASN A   3     -18.922  18.042 -11.015  0.00  0.00    +0.222 C 
ATOM     39  ND2 ASN A   3     -18.492  19.179 -10.475  0.00  0.00    -0.329 N 
ATOM     40 HD21 ASN A   3     -19.077  19.675  -9.773  0.00  0.00    +0.145 HD
ATOM     41 HD22 ASN A   3     -17.571  19.572 -10.755  0.00  0.00    +0.145 HD
ATOM     42  OD1 ASN A   3     -18.270  17.416 -11.849  0.00  0.00    -0.275 OA
ENDBRANCH  37  38
ENDBRANCH  24  37
ENDBRANCH   3  24
TORSDOF 18
REMARK  Name = ../refined-set-2016/4c1u/4c1u_pocket.pdb
REMARK  228 active torsions:
REMARK  status: ('A' for Active; 'I' for Inactive)
REMARK    1  A    between atoms: _1  and  _3
REMARK    2  A    between atoms: _3  and  _4
REMARK    3  A    between atoms: _3  and  _6
REMARK    4  A    between atoms: _6  and  _7
REMARK    5  A    between atoms: _12  and  _14
REMARK    6  A    between atoms: _14  and  _15
REMARK    7  A    between atoms: _14  and  _17
REMARK    8  A    between atoms: _17  and  _18
REMARK    9  A    between atoms: _23  and  _25
REMARK   10  A    between atoms: _25  and  _26
REMARK   11  A    between atoms: _29  and  _31
REMARK   12  A    between atoms: _31  and  _32
REMARK   13  A    between atoms: _31  and  _34
REMARK   14  A    between atoms: _34  and  _35
REMARK   15  A    between atoms: _37  and  _39
REMARK   16  A    between atoms: _39  and  _40
REMARK   17  A    between atoms: _43  and  _45
REMARK   18  A    between atoms: _45  and  _46
REMARK   19  A    between atoms: _48  and  _50
REMARK   20  A    between atoms: _50  and  _51
REMARK   21  A    between atoms: _50  and  _53
REMARK   22  A    between atoms: _53  and  _54
REMARK   23  A    between atoms: _54  and  _55
REMARK   24  A    between atoms: _55  and  _56
REMARK   25  A    between atoms: _65  and  _67
REMARK   26  A    between atoms: _67  and  _68
REMARK   27  A    between atoms: _67  and  _70
REMARK   28  A    between atoms: _70  and  _71
REMARK   29  A    between atoms: _81  and  _83
REMARK   30  A    between atoms: _83  and  _84
REMARK   31  A    between atoms: _83  and  _86
REMARK   32  A    between atoms: _86  and  _87
REMARK   33  A    between atoms: _90  and  _92
REMARK   34  A    between atoms: _92  and  _93
REMARK   35  A    between atoms: _92  and  _95
REMARK   36  A    between atoms: _95  and  _96
REMARK   37  A    between atoms: _96  and  _97
REMARK   38  A    between atoms: _102  and  _104
REMARK   39  A    between atoms: _104  and  _105
REMARK   40  A    between atoms: _104  and  _107
REMARK   41  A    between atoms: _107  and  _108
REMARK   42  A    between atoms: _113  and  _115
REMARK   43  A    between atoms: _115  and  _116
REMARK   44  A    between atoms: _115  and  _118
REMARK   45  A    between atoms: _118  and  _119
REMARK   46  A    between atoms: _119  and  _120
REMARK   47  A    between atoms: _123  and  _125
REMARK   48  A    between atoms: _125  and  _126
REMARK   49  A    between atoms: _125  and  _128
REMARK   50  A    between atoms: _128  and  _129
REMARK   51  A    between atoms: _135  and  _137
REMARK   52  A    between atoms: _137  and  _138
REMARK   53  A    between atoms: _141  and  _143
REMARK   54  A    between atoms: _143  and  _144
REMARK   55  A    between atoms: _143  and  _146
REMARK   56  A    between atoms: _146  and  _147
REMARK   57  A    between atoms: _147  and  _148
REMARK   58  A    between atoms: _150  and  _152
REMARK   59  A    between atoms: _152  and  _153
REMARK   60  A    between atoms: _152  and  _155
REMARK   61  A    between atoms: _155  and  _156
REMARK   62  A    between atoms: _158  and  _160
REMARK   63  A    between atoms: _160  and  _161
REMARK   64  A    between atoms: _160  and  _163
REMARK   65  A    between atoms: _163  and  _164
REMARK   66  A    between atoms: _167  and  _169
REMARK   67  A    between atoms: _169  and  _170
REMARK   68  A    between atoms: _169  and  _172
REMARK   69  A    between atoms: _172  and  _173
REMARK   70  A    between atoms: _173  and  _174
REMARK   71  A    between atoms: _174  and  _175
REMARK   72  A    between atoms: _175  and  _176
REMARK   73  A    between atoms: _180  and  _182
REMARK   74  A    between atoms: _182  and  _183
REMARK   75  A    between atoms: _182  and  _185
REMARK   76  A    between atoms: _188  and  _190
REMARK   77  A    between atoms: _190  and  _191
REMARK   78  A    between atoms: _190  and  _193
REMARK   79  A    between atoms: _193  and  _194
REMARK   80  A    between atoms: _196  and  _198
REMARK   81  A    between atoms: _198  and  _199
REMARK   82  A    between atoms: _198  and  _201
REMARK   83  A    between atoms: _204  and  _206
REMARK   84  A    between atoms: _206  and  _207
REMARK   85  A    between atoms: _206  and  _209
REMARK   86  A    between atoms: _209  and  _210
REMARK   87  A    between atoms: _210  and  _211
REMARK   88  A    between atoms: _214  and  _216
REMARK   89  A    between atoms: _216  and  _217
REMARK   90  A    between atoms: _216  and  _219
REMARK   91  A    between atoms: _219  and  _220
REMARK   92  A    between atoms: _223  and  _225
REMARK   93  A    between atoms: _225  and  _226
REMARK   94  A    between atoms: _229  and  _231
REMARK   95  A    between atoms: _231  and  _232
REMARK   96  A    between atoms: _231  and  _234
REMARK   97  A    between atoms: _234  and  _235
REMARK   98  A    between atoms: _246  and  _247
REMARK   99  A    between atoms: _252  and  _254
REMARK  100  A    between atoms: _254  and  _255
REMARK  101  A    between atoms: _258  and  _260
REMARK  102  A    between atoms: _260  and  _261
REMARK  103  A    between atoms: _260  and  _263
REMARK  104  A    between atoms: _263  and  _264
REMARK  105  A    between atoms: _269  and  _271
REMARK  106  A    between atoms: _271  and  _272
REMARK  107  A    between atoms: _271  and  _274
REMARK  108  A    between atoms: _274  and  _275
REMARK  109  A    between atoms: _280  and  _281
REMARK  110  A    between atoms: _283  and  _285
REMARK  111  A    between atoms: _285  and  _286
REMARK  112  A    between atoms: _289  and  _291
REMARK  113  A    between atoms: _291  and  _292
REMARK  114  A    between atoms: _291  and  _294
REMARK  115  A    between atoms: _294  and  _295
REMARK  116  A    between atoms: _295  and  _296
REMARK  117  A    between atoms: _301  and  _303
REMARK  118  A    between atoms: _303  and  _304
REMARK  119  A    between atoms: _303  and  _306
REMARK  120  A    between atoms: _306  and  _307
REMARK  121  A    between atoms: _307  and  _308
REMARK  122  A    between atoms: _310  and  _312
REMARK  123  A    between atoms: _312  and  _313
REMARK  124  A    between atoms: _315  and  _317
REMARK  125  A    between atoms: _317  and  _318
REMARK  126  A    between atoms: _321  and  _323
REMARK  127  A    between atoms: _323  and  _324
REMARK  128  A    between atoms: _323  and  _326
REMARK  129  A    between atoms: _326  and  _327
REMARK  130  A    between atoms: _337  and  _339
REMARK  131  A    between atoms: _339  and  _340
REMARK  132  A    between atoms: _339  and  _342
REMARK  133  A    between atoms: _342  and  _343
REMARK  134  A    between atoms: _343  and  _344
REMARK  135  A    between atoms: _347  and  _349
REMARK  136  A    between atoms: _349  and  _350
REMARK  137  A    between atoms: _352  and  _354
REMARK  138  A    between atoms: _354  and  _355
REMARK  139  A    between atoms: _354  and  _357
REMARK  140  A    between atoms: _360  and  _362
REMARK  141  A    between atoms: _362  and  _363
REMARK  142  A    between atoms: _362  and  _365
REMARK  143  A    between atoms: _365  and  _366
REMARK  144  A    between atoms: _366  and  _367
REMARK  145  A    between atoms: _369  and  _371
REMARK  146  A    between atoms: _371  and  _372
REMARK  147  A    between atoms: _374  and  _376
REMARK  148  A    between atoms: _376  and  _377
REMARK  149  A    between atoms: _379  and  _381
REMARK  150  A    between atoms: _381  and  _382
REMARK  151  A    between atoms: _381  and  _384
REMARK  152  A    between atoms: _387  and  _389
REMARK  153  A    between atoms: _389  and  _390
REMARK  154  A    between atoms: _389  and  _392
REMARK  155  A    between atoms: _392  and  _393
REMARK  156  A    between atoms: _396  and  _398
REMARK  157  A    between atoms: _398  and  _399
REMARK  158  A    between atoms: _398  and  _401
REMARK  159  A    between atoms: _401  and  _402
REMARK  160  A    between atoms: _407  and  _408
REMARK  161  A    between atoms: _410  and  _412
REMARK  162  A    between atoms: _412  and  _413
REMARK  163  A    between atoms: _412  and  _415
REMARK  164  A    between atoms: _415  and  _416
REMARK  165  A    between atoms: _422  and  _424
REMARK  166  A    between atoms: _424  and  _425
REMARK  167  A    between atoms: _424  and  _427
REMARK  168  A    between atoms: _427  and  _428
REMARK  169  A    between atoms: _428  and  _429
REMARK  170  A    between atoms: _434  and  _436
REMARK  171  A    between atoms: _436  and  _437
REMARK  172  A    between atoms: _436  and  _439
REMARK  173  A    between atoms: _439  and  _440
REMARK  174  A    between atoms: _445  and  _446
REMARK  175  A    between atoms: _448  and  _450
REMARK  176  A    between atoms: _450  and  _451
REMARK  177  A    between atoms: _454  and  _456
REMARK  178  A    between atoms: _456  and  _457
REMARK  179  A    between atoms: _456  and  _459
REMARK  180  A    between atoms: _459  and  _460
REMARK  181  A    between atoms: _466  and  _468
REMARK  182  A    between atoms: _468  and  _469
REMARK  183  A    between atoms: _468  and  _471
REMARK  184  A    between atoms: _471  and  _472
REMARK  185  A    between atoms: _474  and  _476
REMARK  186  A    between atoms: _476  and  _477
REMARK  187  A    between atoms: _476  and  _479
REMARK  188  A    between atoms: _479  and  _480
REMARK  189  A    between atoms: _483  and  _485
REMARK  190  A    between atoms: _485  and  _486
REMARK  191  A    between atoms: _485  and  _488
REMARK  192  A    between atoms: _488  and  _489
REMARK  193  A    between atoms: _493  and  _494
REMARK  194  A    between atoms: _499  and  _501
REMARK  195  A    between atoms: _501  and  _502
REMARK  196  A    between atoms: _505  and  _507
REMARK  197  A    between atoms: _507  and  _508
REMARK  198  A    between atoms: _507  and  _510
REMARK  199  A    between atoms: _510  and  _511
REMARK  200  A    between atoms: _514  and  _516
REMARK  201  A    between atoms: _516  and  _517
REMARK  202  A    between atoms: _516  and  _519
REMARK  203  A    between atoms: _519  and  _520
REMARK  204  A    between atoms: _530  and  _532
REMARK  205  A    between atoms: _532  and  _533
REMARK  206  A    between atoms: _532  and  _535
REMARK  207  A    between atoms: _535  and  _536
REMARK  208  A    between atoms: _536  and  _537
REMARK  209  A    between atoms: _539  and  _541
REMARK  210  A    between atoms: _541  and  _542
REMARK  211  A    between atoms: _541  and  _544
REMARK  212  A    between atoms: _544  and  _545
REMARK  213  A    between atoms: _548  and  _550
REMARK  214  A    between atoms: _550  and  _551
REMARK  215  A    between atoms: _550  and  _553
REMARK  216  A    between atoms: _553  and  _554
REMARK  217  A    between atoms: _557  and  _559
REMARK  218  A    between atoms: _559  and  _560
REMARK  219  A    between atoms: _563  and  _565
REMARK  220  A    between atoms: _565  and  _566
REMARK  221  A    between atoms: _568  and  _570
REMARK  222  A    between atoms: _570  and  _571
REMARK  223  A    between atoms: _570  and  _573
REMARK  224  A    between atoms: _573  and  _574
REMARK  225  A    between atoms: _579  and  _581
REMARK  226  A    between atoms: _581  and  _582
REMARK  227  A    between atoms: _581  and  _584
REMARK  228  A    between atoms: _584  and  _585
REMARK                            x       y       z     vdW  Elec       q    Type
REMARK                         _______ _______ _______ _____ _____    ______ ____
ROOT
ATOM      1  CA  PHE A   1     -17.000  12.525  -8.149  0.00  0.00    +0.149 C 
ENDROOT
BRANCH   1   2
ATOM      2  C   PHE A   1     -15.530  12.242  -7.833  0.00  0.00    +0.239 C 
ATOM      3  N   ALA A   2     -14.730  13.294  -7.684  0.00  0.00    -0.298 N 
ATOM      4  H   ALA A   2     -15.135  14.251  -7.735  0.00  0.00    +0.150 HD
ATOM      5  O   PHE A   1     -15.132  11.081  -7.741  0.00  0.00    -0.274 OA
BRANCH   3   6
ATOM      6  CA  ALA A   2     -13.296  13.138  -7.450  0.00  0.00    +0.137 C 
ATOM      7  CB  ALA A   2     -12.631  14.497  -7.296  0.00  0.00    +0.030 C 
BRANCH   6   8
ATOM      8  C   ALA A   2     -13.026  12.272  -6.224  0.00  0.00    +0.227 C 
ATOM      9  O   ALA A   2     -12.172  11.386  -6.254  0.00  0.00    -0.286 OA
ENDBRANCH   6   8
ENDBRANCH   3   6
ENDBRANCH   1   2
BRANCH   1  10
ATOM     10  N   PHE A   1     -17.675  13.388  -7.184  0.00  0.00    -0.238 NA
ATOM     11  H   PHE A   1     -18.055  14.304  -7.499  0.00  0.00    +0.142 HD
ENDBRANCH   1  10
BRANCH   1  12
ATOM     12  CB  PHE A   1     -17.115  13.094  -9.563  0.00  0.00    +0.053 C 
BRANCH  12  13
ATOM     13  CG  PHE A   1     -16.747  12.106 -10.628  0.00  0.00    -0.020 A 
ATOM     14  CD2 PHE A   1     -15.449  12.029 -11.103  0.00  0.00    -0.004 A 
ATOM     15  CE2 PHE A   1     -15.108  11.107 -12.074  0.00  0.00    -0.000 A 
ATOM     16  CZ  PHE A   1     -16.063  10.245 -12.572  0.00  0.00    -0.000 A 
ATOM     17  CE1 PHE A   1     -17.359  10.308 -12.102  0.00  0.00    -0.000 A 
ATOM     18  CD1 PHE A   1     -17.694  11.232 -11.132  0.00  0.00    -0.004 A 
ENDBRANCH  12  13
ENDBRANCH   1  12
TORSDOF 6
REMARK  Name = ../refined-set-2016/4c1u/4c1u_pocket.pdb
REMARK  228 active torsions:
REMARK  status: ('A' for Active; 'I' for Inactive)
REMARK    1  A    between atoms: _1  and  _3
REMARK    2  A    between atoms: _3  and  _4
REMARK    3  A    between atoms: _3  and  _6
REMARK    4  A    between atoms: _6  and  _7
REMARK    5  A    between atoms: _12  and  _14
REMARK    6  A    between atoms: _14  and  _15
REMARK    7  A    between atoms: _14  and  _17
REMARK    8  A    between atoms: _17  and  _18
REMARK    9  A    between atoms: _23  and  _25
REMARK   10  A    between atoms: _25  and  _26
REMARK   11  A    between atoms: _29  and  _31
REMARK   12  A    between atoms: _31  and  _32
REMARK   13  A    between atoms: _31  and  _34
REMARK   14  A    between atoms: _34  and  _35
REMARK   15  A    between atoms: _37  and  _39
REMARK   16  A    between atoms: _39  and  _40
REMARK   17  A    between atoms: _43  and  _45
REMARK   18  A    between atoms: _45  and  _46
REMARK   19  A    between atoms: _48  and  _50
REMARK   20  A    between atoms: _50  and  _51
REMARK   21  A    between atoms: _50  and  _53
REMARK   22  A    between atoms: _53  and  _54
REMARK   23  A    between atoms: _54  and  _55
REMARK   24  A    between atoms: _55  and  _56
REMARK   25  A    between atoms: _65  and  _67
REMARK   26  A    between atoms: _67  and  _68
REMARK   27  A    between atoms: _67  and  _70
REMARK   28  A    between atoms: _70  and  _71
REMARK   29  A    between atoms: _81  and  _83
REMARK   30  A    between atoms: _83  and  _84
REMARK   31  A    between atoms: _83  and  _86
REMARK   32  A    between atoms: _86  and  _87
REMARK   33  A    between atoms: _90  and  _92
REMARK   34  A    between atoms: _92  and  _93
REMARK   35  A    between atoms: _92  and  _95
REMARK   36  A    between atoms: _95  and  _96
REMARK   37  A    between atoms: _96  and  _97
REMARK   38  A    between atoms: _102  and  _104
REMARK   39  A    between atoms: _104  and  _105
REMARK   40  A    between atoms: _104  and  _107
REMARK   41  A    between atoms: _107  and  _108
REMARK   42  A    between atoms: _113  and  _115
REMARK   43  A    between atoms: _115  and  _116
REMARK   44  A    between atoms: _115  and  _118
REMARK   45  A    between atoms: _118  and  _119
REMARK   46  A    between atoms: _119  and  _120
REMARK   47  A    between atoms: _123  and  _125
REMARK   48  A    between atoms: _125  and  _126
REMARK   49  A    between atoms: _125  and  _128
REMARK   50  A    between atoms: _128  and  _129
REMARK   51  A    between atoms: _135  and  _137
REMARK   52  A    between atoms: _137  and  _138
REMARK   53  A    between atoms: _141  and  _143
REMARK   54  A    between atoms: _143  and  _144
REMARK   55  A    between atoms: _143  and  _146
REMARK   56  A    between atoms: _146  and  _147
REMARK   57  A    between atoms: _147  and  _148
REMARK   58  A    between atoms: _150  and  _152
REMARK   59  A    between atoms: _152  and  _153
REMARK   60  A    between atoms: _152  and  _155
REMARK   61  A    between atoms: _155  and  _156
REMARK   62  A    between atoms: _158  and  _160
REMARK   63  A    between atoms: _160  and  _161
REMARK   64  A    between atoms: _160  and  _163
REMARK   65  A    between atoms: _163  and  _164
REMARK   66  A    between atoms: _167  and  _169
REMARK   67  A    between atoms: _169  and  _170
REMARK   68  A    between atoms: _169  and  _172
REMARK   69  A    between atoms: _172  and  _173
REMARK   70  A    between atoms: _173  and  _174
REMARK   71  A    between atoms: _174  and  _175
REMARK   72  A    between atoms: _175  and  _176
REMARK   73  A    between atoms: _180  and  _182
REMARK   74  A    between atoms: _182  and  _183
REMARK   75  A    between atoms: _182  and  _185
REMARK   76  A    between atoms: _188  and  _190
REMARK   77  A    between atoms: _190  and  _191
REMARK   78  A    between atoms: _190  and  _193
REMARK   79  A    between atoms: _193  and  _194
REMARK   80  A    between atoms: _196  and  _198
REMARK   81  A    between atoms: _198  and  _199
REMARK   82  A    between atoms: _198  and  _201
REMARK   83  A    between atoms: _204  and  _206
REMARK   84  A    between atoms: _206  and  _207
REMARK   85  A    between atoms: _206  and  _209
REMARK   86  A    between atoms: _209  and  _210
REMARK   87  A    between atoms: _210  and  _211
REMARK   88  A    between atoms: _214  and  _216
REMARK   89  A    between atoms: _216  and  _217
REMARK   90  A    between atoms: _216  and  _219
REMARK   91  A    between atoms: _219  and  _220
REMARK   92  A    between atoms: _223  and  _225
REMARK   93  A    between atoms: _225  and  _226
REMARK   94  A    between atoms: _229  and  _231
REMARK   95  A    between atoms: _231  and  _232
REMARK   96  A    between atoms: _231  and  _234
REMARK   97  A    between atoms: _234  and  _235
REMARK   98  A    between atoms: _246  and  _247
REMARK   99  A    between atoms: _252  and  _254
REMARK  100  A    between atoms: _254  and  _255
REMARK  101  A    between atoms: _258  and  _260
REMARK  102  A    between atoms: _260  and  _261
REMARK  103  A    between atoms: _260  and  _263
REMARK  104  A    between atoms: _263  and  _264
REMARK  105  A    between atoms: _269  and  _271
REMARK  106  A    between atoms: _271  and  _272
REMARK  107  A    between atoms: _271  and  _274
REMARK  108  A    between atoms: _274  and  _275
REMARK  109  A    between atoms: _280  and  _281
REMARK  110  A    between atoms: _283  and  _285
REMARK  111  A    between atoms: _285  and  _286
REMARK  112  A    between atoms: _289  and  _291
REMARK  113  A    between atoms: _291  and  _292
REMARK  114  A    between atoms: _291  and  _294
REMARK  115  A    between atoms: _294  and  _295
REMARK  116  A    between atoms: _295  and  _296
REMARK  117  A    between atoms: _301  and  _303
REMARK  118  A    between atoms: _303  and  _304
REMARK  119  A    between atoms: _303  and  _306
REMARK  120  A    between atoms: _306  and  _307
REMARK  121  A    between atoms: _307  and  _308
REMARK  122  A    between atoms: _310  and  _312
REMARK  123  A    between atoms: _312  and  _313
REMARK  124  A    between atoms: _315  and  _317
REMARK  125  A    between atoms: _317  and  _318
REMARK  126  A    between atoms: _321  and  _323
REMARK  127  A    between atoms: _323  and  _324
REMARK  128  A    between atoms: _323  and  _326
REMARK  129  A    between atoms: _326  and  _327
REMARK  130  A    between atoms: _337  and  _339
REMARK  131  A    between atoms: _339  and  _340
REMARK  132  A    between atoms: _339  and  _342
REMARK  133  A    between atoms: _342  and  _343
REMARK  134  A    between atoms: _343  and  _344
REMARK  135  A    between atoms: _347  and  _349
REMARK  136  A    between atoms: _349  and  _350
REMARK  137  A    between atoms: _352  and  _354
REMARK  138  A    between atoms: _354  and  _355
REMARK  139  A    between atoms: _354  and  _357
REMARK  140  A    between atoms: _360  and  _362
REMARK  141  A    between atoms: _362  and  _363
REMARK  142  A    between atoms: _362  and  _365
REMARK  143  A    between atoms: _365  and  _366
REMARK  144  A    between atoms: _366  and  _367
REMARK  145  A    between atoms: _369  and  _371
REMARK  146  A    between atoms: _371  and  _372
REMARK  147  A    between atoms: _374  and  _376
REMARK  148  A    between atoms: _376  and  _377
REMARK  149  A    between atoms: _379  and  _381
REMARK  150  A    between atoms: _381  and  _382
REMARK  151  A    between atoms: _381  and  _384
REMARK  152  A    between atoms: _387  and  _389
REMARK  153  A    between atoms: _389  and  _390
REMARK  154  A    between atoms: _389  and  _392
REMARK  155  A    between atoms: _392  and  _393
REMARK  156  A    between atoms: _396  and  _398
REMARK  157  A    between atoms: _398  and  _399
REMARK  158  A    between atoms: _398  and  _401
REMARK  159  A    between atoms: _401  and  _402
REMARK  160  A    between atoms: _407  and  _408
REMARK  161  A    between atoms: _410  and  _412
REMARK  162  A    between atoms: _412  and  _413
REMARK  163  A    between atoms: _412  and  _415
REMARK  164  A    between atoms: _415  and  _416
REMARK  165  A    between atoms: _422  and  _424
REMARK  166  A    between atoms: _424  and  _425
REMARK  167  A    between atoms: _424  and  _427
REMARK  168  A    between atoms: _427  and  _428
REMARK  169  A    between atoms: _428  and  _429
REMARK  170  A    between atoms: _434  and  _436
REMARK  171  A    between atoms: _436  and  _437
REMARK  172  A    between atoms: _436  and  _439
REMARK  173  A    between atoms: _439  and  _440
REMARK  174  A    between atoms: _445  and  _446
REMARK  175  A    between atoms: _448  and  _450
REMARK  176  A    between atoms: _450  and  _451
REMARK  177  A    between atoms: _454  and  _456
REMARK  178  A    between atoms: _456  and  _457
REMARK  179  A    between atoms: _456  and  _459
REMARK  180  A    between atoms: _459  and  _460
REMARK  181  A    between atoms: _466  and  _468
REMARK  182  A    between atoms: _468  and  _469
REMARK  183  A    between atoms: _468  and  _471
REMARK  184  A    between atoms: _471  and  _472
REMARK  185  A    between atoms: _474  and  _476
REMARK  186  A    between atoms: _476  and  _477
REMARK  187  A    between atoms: _476  and  _479
REMARK  188  A    between atoms: _479  and  _480
REMARK  189  A    between atoms: _483  and  _485
REMARK  190  A    between atoms: _485  and  _486
REMARK  191  A    between atoms: _485  and  _488
REMARK  192  A    between atoms: _488  and  _489
REMARK  193  A    between atoms: _493  and  _494
REMARK  194  A    between atoms: _499  and  _501
REMARK  195  A    between atoms: _501  and  _502
REMARK  196  A    between atoms: _505  and  _507
REMARK  197  A    between atoms: _507  and  _508
REMARK  198  A    between atoms: _507  and  _510
REMARK  199  A    between atoms: _510  and  _511
REMARK  200  A    between atoms: _514  and  _516
REMARK  201  A    between atoms: _516  and  _517
REMARK  202  A    between atoms: _516  and  _519
REMARK  203  A    between atoms: _519  and  _520
REMARK  204  A    between atoms: _530  and  _532
REMARK  205  A    between atoms: _532  and  _533
REMARK  206  A    between atoms: _532  and  _535
REMARK  207  A    between atoms: _535  and  _536
REMARK  208  A    between atoms: _536  and  _537
REMARK  209  A    between atoms: _539  and  _541
REMARK  210  A    between atoms: _541  and  _542
REMARK  211  A    between atoms: _541  and  _544
REMARK  212  A    between atoms: _544  and  _545
REMARK  213  A    between atoms: _548  and  _550
REMARK  214  A    between atoms: _550  and  _551
REMARK  215  A    between atoms: _550  and  _553
REMARK  216  A    between atoms: _553  and  _554
REMARK  217  A    between atoms: _557  and  _559
REMARK  218  A    between atoms: _559  and  _560
REMARK  219  A    between atoms: _563  and  _565
REMARK  220  A    between atoms: _565  and  _566
REMARK  221  A    between atoms: _568  and  _570
REMARK  222  A    between atoms: _570  and  _571
REMARK  223  A    between atoms: _570  and  _573
REMARK  224  A    between atoms: _573  and  _574
REMARK  225  A    between atoms: _579  and  _581
REMARK  226  A    between atoms: _581  and  _582
REMARK  227  A    between atoms: _581  and  _584
REMARK  228  A    between atoms: _584  and  _585
REMARK                            x       y       z     vdW  Elec       q    Type
REMARK                         _______ _______ _______ _____ _____    ______ ____
ROOT
ATOM      1  CA  SER A   2     -11.254  12.450 -16.028  0.00  0.00    +0.178 C 
ENDROOT
BRANCH   1   4
ATOM      2  C   MET A   1     -13.225  11.050 -15.710  0.00  0.00    +0.238 C 
ATOM      3  O   MET A   1     -12.877  10.705 -14.578  0.00  0.00    -0.274 OA
ATOM      4  N   SER A   2     -12.521  11.884 -16.466  0.00  0.00    -0.295 N 
ATOM      5  H   SER A   2     -12.888  12.142 -17.404  0.00  0.00    +0.150 HD
BRANCH   2   6
ATOM      6  CA  MET A   1     -14.523  10.540 -16.322  0.00  0.00    +0.146 C 
BRANCH   6   7
ATOM      7  N   MET A   1     -14.798   9.183 -15.879  0.00  0.00    -0.238 NA
ATOM      8  H   MET A   1     -15.605   9.013 -15.245  0.00  0.00    +0.142 HD
ENDBRANCH   6   7
BRANCH   6   9
ATOM      9  CB  MET A   1     -15.671  11.464 -15.924  0.00  0.00    +0.038 C 
BRANCH   9  10
ATOM     10  CG  MET A   1     -15.585  12.857 -16.522  0.00  0.00    +0.060 C 
BRANCH  10  11
ATOM     11  SD  MET A   1     -16.836  13.966 -15.854  0.00  0.00    -0.139 S 
ATOM     12  CE  MET A   1     -16.139  14.326 -14.244  0.00  0.00    +0.069 C 
ENDBRANCH  10  11
ENDBRANCH   9  10
ENDBRANCH   6   9
ENDBRANCH   2   6
ENDBRANCH   1   4
BRANCH   1  13
ATOM     13  C   SER A   2     -11.451  13.526 -14.967  0.00  0.00    +0.243 C 
ATOM     14  N   LEU A   3     -10.404  13.758 -14.181  0.00  0.00    -0.298 N 
ATOM     15  H   LEU A   3      -9.575  13.135 -14.257  0.00  0.00    +0.150 HD
ATOM     16  O   SER A   2     -12.524  14.126 -14.866  0.00  0.00    -0.273 OA
BRANCH  14  17
ATOM     17  CA  LEU A   3     -10.372  14.851 -13.216  0.00  0.00    +0.137 C 
BRANCH  17  18
ATOM     18  C   LEU A   3      -9.584  16.022 -13.800  0.00  0.00    +0.227 C 
ATOM     19  O   LEU A   3      -9.823  17.182 -13.456  0.00  0.00    -0.286 OA
ENDBRANCH  17  18
BRANCH  17  20
ATOM     20  CB  LEU A   3      -9.752  14.381 -11.898  0.00  0.00    +0.028 C 
BRANCH  20  21
ATOM     21  CG  LEU A   3     -10.444  13.182 -11.237  0.00  0.00    +0.002 C 
ATOM     22  CD2 LEU A   3      -9.788  12.847  -9.909  0.00  0.00    +0.000 C 
ATOM     23  CD1 LEU A   3     -11.935  13.438 -11.043  0.00  0.00    +0.000 C 
ENDBRANCH  20  21
ENDBRANCH  17  20
ENDBRANCH  14  17
ENDBRANCH   1  13
BRANCH   1  24
ATOM     24  CB  SER A   2     -10.525  13.058 -17.223  0.00  0.00    +0.166 C 
BRANCH  24  25
ATOM     25  OG  SER A   2     -11.307  14.081 -17.819  0.00  0.00    -0.380 OA
ATOM     26  H   SER A   2     -11.480  14.793 -17.153  0.00  0.00    +0.211 HD
ENDBRANCH  24  25
ENDBRANCH   1  24
TORSDOF 13
REMARK  Name = ../refined-set-2016/4c1u/4c1u_pocket.pdb
REMARK  228 active torsions:
REMARK  status: ('A' for Active; 'I' for Inactive)
REMARK    1  A    between atoms: _1  and  _3
REMARK    2  A    between atoms: _3  and  _4
REMARK    3  A    between atoms: _3  and  _6
REMARK    4  A    between atoms: _6  and  _7
REMARK    5  A    between atoms: _12  and  _14
REMARK    6  A    between atoms: _14  and  _15
REMARK    7  A    between atoms: _14  and  _17
REMARK    8  A    between atoms: _17  and  _18
REMARK    9  A    between atoms: _23  and  _25
REMARK   10  A    between atoms: _25  and  _26
REMARK   11  A    between atoms: _29  and  _31
REMARK   12  A    between atoms: _31  and  _32
REMARK   13  A    between atoms: _31  and  _34
REMARK   14  A    between atoms: _34  and  _35
REMARK   15  A    between atoms: _37  and  _39
REMARK   16  A    between atoms: _39  and  _40
REMARK   17  A    between atoms: _43  and  _45
REMARK   18  A    between atoms: _45  and  _46
REMARK   19  A    between atoms: _48  and  _50
REMARK   20  A    between atoms: _50  and  _51
REMARK   21  A    between atoms: _50  and  _53
REMARK   22  A    between atoms: _53  and  _54
REMARK   23  A    between atoms: _54  and  _55
REMARK   24  A    between atoms: _55  and  _56
REMARK   25  A    between atoms: _65  and  _67
REMARK   26  A    between atoms: _67  and  _68
REMARK   27  A    between atoms: _67  and  _70
REMARK   28  A    between atoms: _70  and  _71
REMARK   29  A    between atoms: _81  and  _83
REMARK   30  A    between atoms: _83  and  _84
REMARK   31  A    between atoms: _83  and  _86
REMARK   32  A    between atoms: _86  and  _87
REMARK   33  A    between atoms: _90  and  _92
REMARK   34  A    between atoms: _92  and  _93
REMARK   35  A    between atoms: _92  and  _95
REMARK   36  A    between atoms: _95  and  _96
REMARK   37  A    between atoms: _96  and  _97
REMARK   38  A    between atoms: _102  and  _104
REMARK   39  A    between atoms: _104  and  _105
REMARK   40  A    between atoms: _104  and  _107
REMARK   41  A    between atoms: _107  and  _108
REMARK   42  A    between atoms: _113  and  _115
REMARK   43  A    between atoms: _115  and  _116
REMARK   44  A    between atoms: _115  and  _118
REMARK   45  A    between atoms: _118  and  _119
REMARK   46  A    between atoms: _119  and  _120
REMARK   47  A    between atoms: _123  and  _125
REMARK   48  A    between atoms: _125  and  _126
REMARK   49  A    between atoms: _125  and  _128
REMARK   50  A    between atoms: _128  and  _129
REMARK   51  A    between atoms: _135  and  _137
REMARK   52  A    between atoms: _137  and  _138
REMARK   53  A    between atoms: _141  and  _143
REMARK   54  A    between atoms: _143  and  _144
REMARK   55  A    between atoms: _143  and  _146
REMARK   56  A    between atoms: _146  and  _147
REMARK   57  A    between atoms: _147  and  _148
REMARK   58  A    between atoms: _150  and  _152
REMARK   59  A    between atoms: _152  and  _153
REMARK   60  A    between atoms: _152  and  _155
REMARK   61  A    between atoms: _155  and  _156
REMARK   62  A    between atoms: _158  and  _160
REMARK   63  A    between atoms: _160  and  _161
REMARK   64  A    between atoms: _160  and  _163
REMARK   65  A    between atoms: _163  and  _164
REMARK   66  A    between atoms: _167  and  _169
REMARK   67  A    between atoms: _169  and  _170
REMARK   68  A    between atoms: _169  and  _172
REMARK   69  A    between atoms: _172  and  _173
REMARK   70  A    between atoms: _173  and  _174
REMARK   71  A    between atoms: _174  and  _175
REMARK   72  A    between atoms: _175  and  _176
REMARK   73  A    between atoms: _180  and  _182
REMARK   74  A    between atoms: _182  and  _183
REMARK   75  A    between atoms: _182  and  _185
REMARK   76  A    between atoms: _188  and  _190
REMARK   77  A    between atoms: _190  and  _191
REMARK   78  A    between atoms: _190  and  _193
REMARK   79  A    between atoms: _193  and  _194
REMARK   80  A    between atoms: _196  and  _198
REMARK   81  A    between atoms: _198  and  _199
REMARK   82  A    between atoms: _198  and  _201
REMARK   83  A    between atoms: _204  and  _206
REMARK   84  A    between atoms: _206  and  _207
REMARK   85  A    between atoms: _206  and  _209
REMARK   86  A    between atoms: _209  and  _210
REMARK   87  A    between atoms: _210  and  _211
REMARK   88  A    between atoms: _214  and  _216
REMARK   89  A    between atoms: _216  and  _217
REMARK   90  A    between atoms: _216  and  _219
REMARK   91  A    between atoms: _219  and  _220
REMARK   92  A    between atoms: _223  and  _225
REMARK   93  A    between atoms: _225  and  _226
REMARK   94  A    between atoms: _229  and  _231
REMARK   95  A    between atoms: _231  and  _232
REMARK   96  A    between atoms: _231  and  _234
REMARK   97  A    between atoms: _234  and  _235
REMARK   98  A    between atoms: _246  and  _247
REMARK   99  A    between atoms: _252  and  _254
REMARK  100  A    between atoms: _254  and  _255
REMARK  101  A    between atoms: _258  and  _260
REMARK  102  A    between atoms: _260  and  _261
REMARK  103  A    between atoms: _260  and  _263
REMARK  104  A    between atoms: _263  and  _264
REMARK  105  A    between atoms: _269  and  _271
REMARK  106  A    between atoms: _271  and  _272
REMARK  107  A    between atoms: _271  and  _274
REMARK  108  A    between atoms: _274  and  _275
REMARK  109  A    between atoms: _280  and  _281
REMARK  110  A    between atoms: _283  and  _285
REMARK  111  A    between atoms: _285  and  _286
REMARK  112  A    between atoms: _289  and  _291
REMARK  113  A    between atoms: _291  and  _292
REMARK  114  A    between atoms: _291  and  _294
REMARK  115  A    between atoms: _294  and  _295
REMARK  116  A    between atoms: _295  and  _296
REMARK  117  A    between atoms: _301  and  _303
REMARK  118  A    between atoms: _303  and  _304
REMARK  119  A    between atoms: _303  and  _306
REMARK  120  A    between atoms: _306  and  _307
REMARK  121  A    between atoms: _307  and  _308
REMARK  122  A    between atoms: _310  and  _312
REMARK  123  A    between atoms: _312  and  _313
REMARK  124  A    between atoms: _315  and  _317
REMARK  125  A    between atoms: _317  and  _318
REMARK  126  A    between atoms: _321  and  _323
REMARK  127  A    between atoms: _323  and  _324
REMARK  128  A    between atoms: _323  and  _326
REMARK  129  A    between atoms: _326  and  _327
REMARK  130  A    between atoms: _337  and  _339
REMARK  131  A    between atoms: _339  and  _340
REMARK  132  A    between atoms: _339  and  _342
REMARK  133  A    between atoms: _342  and  _343
REMARK  134  A    between atoms: _343  and  _344
REMARK  135  A    between atoms: _347  and  _349
REMARK  136  A    between atoms: _349  and  _350
REMARK  137  A    between atoms: _352  and  _354
REMARK  138  A    between atoms: _354  and  _355
REMARK  139  A    between atoms: _354  and  _357
REMARK  140  A    between atoms: _360  and  _362
REMARK  141  A    between atoms: _362  and  _363
REMARK  142  A    between atoms: _362  and  _365
REMARK  143  A    between atoms: _365  and  _366
REMARK  144  A    between atoms: _366  and  _367
REMARK  145  A    between atoms: _369  and  _371
REMARK  146  A    between atoms: _371  and  _372
REMARK  147  A    between atoms: _374  and  _376
REMARK  148  A    between atoms: _376  and  _377
REMARK  149  A    between atoms: _379  and  _381
REMARK  150  A    between atoms: _381  and  _382
REMARK  151  A    between atoms: _381  and  _384
REMARK  152  A    between atoms: _387  and  _389
REMARK  153  A    between atoms: _389  and  _390
REMARK  154  A    between atoms: _389  and  _392
REMARK  155  A    between atoms: _392  and  _393
REMARK  156  A    between atoms: _396  and  _398
REMARK  157  A    between atoms: _398  and  _399
REMARK  158  A    between atoms: _398  and  _401
REMARK  159  A    between atoms: _401  and  _402
REMARK  160  A    between atoms: _407  and  _408
REMARK  161  A    between atoms: _410  and  _412
REMARK  162  A    between atoms: _412  and  _413
REMARK  163  A    between atoms: _412  and  _415
REMARK  164  A    between atoms: _415  and  _416
REMARK  165  A    between atoms: _422  and  _424
REMARK  166  A    between atoms: _424  and  _425
REMARK  167  A    between atoms: _424  and  _427
REMARK  168  A    between atoms: _427  and  _428
REMARK  169  A    between atoms: _428  and  _429
REMARK  170  A    between atoms: _434  and  _436
REMARK  171  A    between atoms: _436  and  _437
REMARK  172  A    between atoms: _436  and  _439
REMARK  173  A    between atoms: _439  and  _440
REMARK  174  A    between atoms: _445  and  _446
REMARK  175  A    between atoms: _448  and  _450
REMARK  176  A    between atoms: _450  and  _451
REMARK  177  A    between atoms: _454  and  _456
REMARK  178  A    between atoms: _456  and  _457
REMARK  179  A    between atoms: _456  and  _459
REMARK  180  A    between atoms: _459  and  _460
REMARK  181  A    between atoms: _466  and  _468
REMARK  182  A    between atoms: _468  and  _469
REMARK  183  A    between atoms: _468  and  _471
REMARK  184  A    between atoms: _471  and  _472
REMARK  185  A    between atoms: _474  and  _476
REMARK  186  A    between atoms: _476  and  _477
REMARK  187  A    between atoms: _476  and  _479
REMARK  188  A    between atoms: _479  and  _480
REMARK  189  A    between atoms: _483  and  _485
REMARK  190  A    between atoms: _485  and  _486
REMARK  191  A    between atoms: _485  and  _488
REMARK  192  A    between atoms: _488  and  _489
REMARK  193  A    between atoms: _493  and  _494
REMARK  194  A    between atoms: _499  and  _501
REMARK  195  A    between atoms: _501  and  _502
REMARK  196  A    between atoms: _505  and  _507
REMARK  197  A    between atoms: _507  and  _508
REMARK  198  A    between atoms: _507  and  _510
REMARK  199  A    between atoms: _510  and  _511
REMARK  200  A    between atoms: _514  and  _516
REMARK  201  A    between atoms: _516  and  _517
REMARK  202  A    between atoms: _516  and  _519
REMARK  203  A    between atoms: _519  and  _520
REMARK  204  A    between atoms: _530  and  _532
REMARK  205  A    between atoms: _532  and  _533
REMARK  206  A    between atoms: _532  and  _535
REMARK  207  A    between atoms: _535  and  _536
REMARK  208  A    between atoms: _536  and  _537
REMARK  209  A    between atoms: _539  and  _541
REMARK  210  A    between atoms: _541  and  _542
REMARK  211  A    between atoms: _541  and  _544
REMARK  212  A    between atoms: _544  and  _545
REMARK  213  A    between atoms: _548  and  _550
REMARK  214  A    between atoms: _550  and  _551
REMARK  215  A    between atoms: _550  and  _553
REMARK  216  A    between atoms: _553  and  _554
REMARK  217  A    between atoms: _557  and  _559
REMARK  218  A    between atoms: _559  and  _560
REMARK  219  A    between atoms: _563  and  _565
REMARK  220  A    between atoms: _565  and  _566
REMARK  221  A    between atoms: _568  and  _570
REMARK  222  A    between atoms: _570  and  _571
REMARK  223  A    between atoms: _570  and  _573
REMARK  224  A    between atoms: _573  and  _574
REMARK  225  A    between atoms: _579  and  _581
REMARK  226  A    between atoms: _581  and  _582
REMARK  227  A    between atoms: _581  and  _584
REMARK  228  A    between atoms: _584  and  _585
REMARK                            x       y       z     vdW  Elec       q    Type
REMARK                         _______ _______ _______ _____ _____    ______ ____
ROOT
ATOM      1  CG  LYS A   1      -6.833  17.149  -9.980  0.00  0.00    -0.000 C 
ENDROOT
BRANCH   1   2
ATOM      2  CB  LYS A   1      -6.745  15.859 -10.769  0.00  0.00    +0.025 C 
BRANCH   2   3
ATOM      3  CA  LYS A   1      -5.321  15.327 -10.925  0.00  0.00    +0.133 C 
BRANCH   3   4
ATOM      4  N   LYS A   1      -4.454  16.312 -11.572  0.00  0.00    -0.239 NA
ATOM      5  H   LYS A   1      -4.872  17.169 -11.988  0.00  0.00    +0.142 HD
ENDBRANCH   3   4
BRANCH   3   6
ATOM      6  C   LYS A   1      -5.336  14.025 -11.718  0.00  0.00    +0.224 C 
ATOM      7  O   LYS A   1      -5.400  12.939 -11.140  0.00  0.00    -0.287 OA
ENDBRANCH   3   6
ENDBRANCH   2   3
ENDBRANCH   1   2
BRANCH   1   8
ATOM      8  CD  LYS A   1      -8.233  17.360  -9.437  0.00  0.00    -0.024 C 
BRANCH   8   9
ATOM      9  CE  LYS A   1      -8.320  18.617  -8.597  0.00  0.00    -0.086 C 
BRANCH   9  10
ATOM     10  NZ  LYS A   1      -9.633  18.734  -7.918  0.00  0.00    +0.380 N 
ATOM     11  HZ1 LYS A   1      -9.774  17.913  -7.295  0.00  0.00    -0.089 HD
ATOM     12  HZ2 LYS A   1      -9.653  19.607  -7.353  0.00  0.00    -0.089 HD
ATOM     13  HZ3 LYS A   1     -10.389  18.764  -8.631  0.00  0.00    -0.089 HD
ENDBRANCH   9  10
ENDBRANCH   8   9
ENDBRANCH   1   8
TORSDOF 7
REMARK  Name = ../refined-set-2016/4c1u/4c1u_pocket.pdb
REMARK  228 active torsions:
REMARK  status: ('A' for Active; 'I' for Inactive)
REMARK    1  A    between atoms: _1  and  _3
REMARK    2  A    between atoms: _3  and  _4
REMARK    3  A    between atoms: _3  and  _6
REMARK    4  A    between atoms: _6  and  _7
REMARK    5  A    between atoms: _12  and  _14
REMARK    6  A    between atoms: _14  and  _15
REMARK    7  A    between atoms: _14  and  _17
REMARK    8  A    between atoms: _17  and  _18
REMARK    9  A    between atoms: _23  and  _25
REMARK   10  A    between atoms: _25  and  _26
REMARK   11  A    between atoms: _29  and  _31
REMARK   12  A    between atoms: _31  and  _32
REMARK   13  A    between atoms: _31  and  _34
REMARK   14  A    between atoms: _34  and  _35
REMARK   15  A    between atoms: _37  and  _39
REMARK   16  A    between atoms: _39  and  _40
REMARK   17  A    between atoms: _43  and  _45
REMARK   18  A    between atoms: _45  and  _46
REMARK   19  A    between atoms: _48  and  _50
REMARK   20  A    between atoms: _50  and  _51
REMARK   21  A    between atoms: _50  and  _53
REMARK   22  A    between atoms: _53  and  _54
REMARK   23  A    between atoms: _54  and  _55
REMARK   24  A    between atoms: _55  and  _56
REMARK   25  A    between atoms: _65  and  _67
REMARK   26  A    between atoms: _67  and  _68
REMARK   27  A    between atoms: _67  and  _70
REMARK   28  A    between atoms: _70  and  _71
REMARK   29  A    between atoms: _81  and  _83
REMARK   30  A    between atoms: _83  and  _84
REMARK   31  A    between atoms: _83  and  _86
REMARK   32  A    between atoms: _86  and  _87
REMARK   33  A    between atoms: _90  and  _92
REMARK   34  A    between atoms: _92  and  _93
REMARK   35  A    between atoms: _92  and  _95
REMARK   36  A    between atoms: _95  and  _96
REMARK   37  A    between atoms: _96  and  _97
REMARK   38  A    between atoms: _102  and  _104
REMARK   39  A    between atoms: _104  and  _105
REMARK   40  A    between atoms: _104  and  _107
REMARK   41  A    between atoms: _107  and  _108
REMARK   42  A    between atoms: _113  and  _115
REMARK   43  A    between atoms: _115  and  _116
REMARK   44  A    between atoms: _115  and  _118
REMARK   45  A    between atoms: _118  and  _119
REMARK   46  A    between atoms: _119  and  _120
REMARK   47  A    between atoms: _123  and  _125
REMARK   48  A    between atoms: _125  and  _126
REMARK   49  A    between atoms: _125  and  _128
REMARK   50  A    between atoms: _128  and  _129
REMARK   51  A    between atoms: _135  and  _137
REMARK   52  A    between atoms: _137  and  _138
REMARK   53  A    between atoms: _141  and  _143
REMARK   54  A    between atoms: _143  and  _144
REMARK   55  A    between atoms: _143  and  _146
REMARK   56  A    between atoms: _146  and  _147
REMARK   57  A    between atoms: _147  and  _148
REMARK   58  A    between atoms: _150  and  _152
REMARK   59  A    between atoms: _152  and  _153
REMARK   60  A    between atoms: _152  and  _155
REMARK   61  A    between atoms: _155  and  _156
REMARK   62  A    between atoms: _158  and  _160
REMARK   63  A    between atoms: _160  and  _161
REMARK   64  A    between atoms: _160  and  _163
REMARK   65  A    between atoms: _163  and  _164
REMARK   66  A    between atoms: _167  and  _169
REMARK   67  A    between atoms: _169  and  _170
REMARK   68  A    between atoms: _169  and  _172
REMARK   69  A    between atoms: _172  and  _173
REMARK   70  A    between atoms: _173  and  _174
REMARK   71  A    between atoms: _174  and  _175
REMARK   72  A    between atoms: _175  and  _176
REMARK   73  A    between atoms: _180  and  _182
REMARK   74  A    between atoms: _182  and  _183
REMARK   75  A    between atoms: _182  and  _185
REMARK   76  A    between atoms: _188  and  _190
REMARK   77  A    between atoms: _190  and  _191
REMARK   78  A    between atoms: _190  and  _193
REMARK   79  A    between atoms: _193  and  _194
REMARK   80  A    between atoms: _196  and  _198
REMARK   81  A    between atoms: _198  and  _199
REMARK   82  A    between atoms: _198  and  _201
REMARK   83  A    between atoms: _204  and  _206
REMARK   84  A    between atoms: _206  and  _207
REMARK   85  A    between atoms: _206  and  _209
REMARK   86  A    between atoms: _209  and  _210
REMARK   87  A    between atoms: _210  and  _211
REMARK   88  A    between atoms: _214  and  _216
REMARK   89  A    between atoms: _216  and  _217
REMARK   90  A    between atoms: _216  and  _219
REMARK   91  A    between atoms: _219  and  _220
REMARK   92  A    between atoms: _223  and  _225
REMARK   93  A    between atoms: _225  and  _226
REMARK   94  A    between atoms: _229  and  _231
REMARK   95  A    between atoms: _231  and  _232
REMARK   96  A    between atoms: _231  and  _234
REMARK   97  A    between atoms: _234  and  _235
REMARK   98  A    between atoms: _246  and  _247
REMARK   99  A    between atoms: _252  and  _254
REMARK  100  A    between atoms: _254  and  _255
REMARK  101  A    between atoms: _258  and  _260
REMARK  102  A    between atoms: _260  and  _261
REMARK  103  A    between atoms: _260  and  _263
REMARK  104  A    between atoms: _263  and  _264
REMARK  105  A    between atoms: _269  and  _271
REMARK  106  A    between atoms: _271  and  _272
REMARK  107  A    between atoms: _271  and  _274
REMARK  108  A    between atoms: _274  and  _275
REMARK  109  A    between atoms: _280  and  _281
REMARK  110  A    between atoms: _283  and  _285
REMARK  111  A    between atoms: _285  and  _286
REMARK  112  A    between atoms: _289  and  _291
REMARK  113  A    between atoms: _291  and  _292
REMARK  114  A    between atoms: _291  and  _294
REMARK  115  A    between atoms: _294  and  _295
REMARK  116  A    between atoms: _295  and  _296
REMARK  117  A    between atoms: _301  and  _303
REMARK  118  A    between atoms: _303  and  _304
REMARK  119  A    between atoms: _303  and  _306
REMARK  120  A    between atoms: _306  and  _307
REMARK  121  A    between atoms: _307  and  _308
REMARK  122  A    between atoms: _310  and  _312
REMARK  123  A    between atoms: _312  and  _313
REMARK  124  A    between atoms: _315  and  _317
REMARK  125  A    between atoms: _317  and  _318
REMARK  126  A    between atoms: _321  and  _323
REMARK  127  A    between atoms: _323  and  _324
REMARK  128  A    between atoms: _323  and  _326
REMARK  129  A    between atoms: _326  and  _327
REMARK  130  A    between atoms: _337  and  _339
REMARK  131  A    between atoms: _339  and  _340
REMARK  132  A    between atoms: _339  and  _342
REMARK  133  A    between atoms: _342  and  _343
REMARK  134  A    between atoms: _343  and  _344
REMARK  135  A    between atoms: _347  and  _349
REMARK  136  A    between atoms: _349  and  _350
REMARK  137  A    between atoms: _352  and  _354
REMARK  138  A    between atoms: _354  and  _355
REMARK  139  A    between atoms: _354  and  _357
REMARK  140  A    between atoms: _360  and  _362
REMARK  141  A    between atoms: _362  and  _363
REMARK  142  A    between atoms: _362  and  _365
REMARK  143  A    between atoms: _365  and  _366
REMARK  144  A    between atoms: _366  and  _367
REMARK  145  A    between atoms: _369  and  _371
REMARK  146  A    between atoms: _371  and  _372
REMARK  147  A    between atoms: _374  and  _376
REMARK  148  A    between atoms: _376  and  _377
REMARK  149  A    between atoms: _379  and  _381
REMARK  150  A    between atoms: _381  and  _382
REMARK  151  A    between atoms: _381  and  _384
REMARK  152  A    between atoms: _387  and  _389
REMARK  153  A    between atoms: _389  and  _390
REMARK  154  A    between atoms: _389  and  _392
REMARK  155  A    between atoms: _392  and  _393
REMARK  156  A    between atoms: _396  and  _398
REMARK  157  A    between atoms: _398  and  _399
REMARK  158  A    between atoms: _398  and  _401
REMARK  159  A    between atoms: _401  and  _402
REMARK  160  A    between atoms: _407  and  _408
REMARK  161  A    between atoms: _410  and  _412
REMARK  162  A    between atoms: _412  and  _413
REMARK  163  A    between atoms: _412  and  _415
REMARK  164  A    between atoms: _415  and  _416
REMARK  165  A    between atoms: _422  and  _424
REMARK  166  A    between atoms: _424  and  _425
REMARK  167  A    between atoms: _424  and  _427
REMARK  168  A    between atoms: _427  and  _428
REMARK  169  A    between atoms: _428  and  _429
REMARK  170  A    between atoms: _434  and  _436
REMARK  171  A    between atoms: _436  and  _437
REMARK  172  A    between atoms: _436  and  _439
REMARK  173  A    between atoms: _439  and  _440
REMARK  174  A    between atoms: _445  and  _446
REMARK  175  A    between atoms: _448  and  _450
REMARK  176  A    between atoms: _450  and  _451
REMARK  177  A    between atoms: _454  and  _456
REMARK  178  A    between atoms: _456  and  _457
REMARK  179  A    between atoms: _456  and  _459
REMARK  180  A    between atoms: _459  and  _460
REMARK  181  A    between atoms: _466  and  _468
REMARK  182  A    between atoms: _468  and  _469
REMARK  183  A    between atoms: _468  and  _471
REMARK  184  A    between atoms: _471  and  _472
REMARK  185  A    between atoms: _474  and  _476
REMARK  186  A    between atoms: _476  and  _477
REMARK  187  A    between atoms: _476  and  _479
REMARK  188  A    between atoms: _479  and  _480
REMARK  189  A    between atoms: _483  and  _485
REMARK  190  A    between atoms: _485  and  _486
REMARK  191  A    between atoms: _485  and  _488
REMARK  192  A    between atoms: _488  and  _489
REMARK  193  A    between atoms: _493  and  _494
REMARK  194  A    between atoms: _499  and  _501
REMARK  195  A    between atoms: _501  and  _502
REMARK  196  A    between atoms: _505  and  _507
REMARK  197  A    between atoms: _507  and  _508
REMARK  198  A    between atoms: _507  and  _510
REMARK  199  A    between atoms: _510  and  _511
REMARK  200  A    between atoms: _514  and  _516
REMARK  201  A    between atoms: _516  and  _517
REMARK  202  A    between atoms: _516  and  _519
REMARK  203  A    between atoms: _519  and  _520
REMARK  204  A    between atoms: _530  and  _532
REMARK  205  A    between atoms: _532  and  _533
REMARK  206  A    between atoms: _532  and  _535
REMARK  207  A    between atoms: _535  and  _536
REMARK  208  A    between atoms: _536  and  _537
REMARK  209  A    between atoms: _539  and  _541
REMARK  210  A    between atoms: _541  and  _542
REMARK  211  A    between atoms: _541  and  _544
REMARK  212  A    between atoms: _544  and  _545
REMARK  213  A    between atoms: _548  and  _550
REMARK  214  A    between atoms: _550  and  _551
REMARK  215  A    between atoms: _550  and  _553
REMARK  216  A    between atoms: _553  and  _554
REMARK  217  A    between atoms: _557  and  _559
REMARK  218  A    between atoms: _559  and  _560
REMARK  219  A    between atoms: _563  and  _565
REMARK  220  A    between atoms: _565  and  _566
REMARK  221  A    between atoms: _568  and  _570
REMARK  222  A    between atoms: _570  and  _571
REMARK  223  A    between atoms: _570  and  _573
REMARK  224  A    between atoms: _573  and  _574
REMARK  225  A    between atoms: _579  and  _581
REMARK  226  A    between atoms: _581  and  _582
REMARK  227  A    between atoms: _581  and  _584
REMARK  228  A    between atoms: _584  and  _585
REMARK                            x       y       z     vdW  Elec       q    Type
REMARK                         _______ _______ _______ _____ _____    ______ ____
ROOT
ATOM      1  C   SER A   2     -14.856  18.878 -24.184  0.00  0.00    +0.243 C 
ATOM      2  O   SER A   2     -13.852  18.505 -23.573  0.00  0.00    -0.273 OA
ATOM      3  N   VAL A   3     -15.031  20.124 -24.616  0.00  0.00    -0.297 N 
ATOM      4  H   VAL A   3     -15.867  20.338 -25.197  0.00  0.00    +0.150 HD
ENDROOT
BRANCH   1   5
ATOM      5  CA  SER A   2     -15.992  17.908 -24.499  0.00  0.00    +0.178 C 
BRANCH   5   7
ATOM      6  C   VAL A   1     -16.205  15.635 -25.330  0.00  0.00    +0.238 C 
ATOM      7  N   SER A   2     -15.551  16.517 -24.577  0.00  0.00    -0.295 N 
ATOM      8  H   SER A   2     -14.716  16.212 -24.038  0.00  0.00    +0.150 HD
ATOM      9  O   VAL A   1     -17.194  15.937 -25.998  0.00  0.00    -0.274 OA
BRANCH   6  10
ATOM     10  CA  VAL A   1     -15.676  14.199 -25.341  0.00  0.00    +0.145 C 
BRANCH  10  11
ATOM     11  CB  VAL A   1     -16.601  13.312 -24.469  0.00  0.00    +0.025 C 
ATOM     12  CG2 VAL A   1     -16.561  13.747 -23.009  0.00  0.00    +0.002 C 
ATOM     13  CG1 VAL A   1     -16.218  11.846 -24.608  0.00  0.00    +0.002 C 
ENDBRANCH  10  11
BRANCH  10  14
ATOM     14  N   VAL A   1     -14.278  14.119 -24.917  0.00  0.00    -0.238 NA
ATOM     15  H   VAL A   1     -14.013  14.480 -23.978  0.00  0.00    +0.142 HD
ENDBRANCH  10  14
ENDBRANCH   6  10
ENDBRANCH   5   7
BRANCH   5  16
ATOM     16  CB  SER A   2     -17.100  18.055 -23.450  0.00  0.00    +0.166 C 
BRANCH  16  17
ATOM     17  OG  SER A   2     -16.592  17.911 -22.135  0.00  0.00    -0.380 OA
ATOM     18  H   SER A   2     -17.331  18.011 -21.484  0.00  0.00    +0.211 HD
ENDBRANCH  16  17
ENDBRANCH   5  16
ENDBRANCH   1   5
BRANCH   3  19
ATOM     19  CA  VAL A   3     -14.100  21.201 -24.309  0.00  0.00    +0.149 C 
BRANCH  19  20
ATOM     20  C   VAL A   3     -14.911  22.396 -23.811  0.00  0.00    +0.241 C 
ATOM     21  N   GLU A   4     -14.519  22.945 -22.665  0.00  0.00    -0.298 N 
ATOM     22  H   GLU A   4     -13.631  22.628 -22.226  0.00  0.00    +0.150 HD
ATOM     23  O   VAL A   3     -15.885  22.801 -24.447  0.00  0.00    -0.273 OA
BRANCH  21  24
ATOM     24  CA  GLU A   4     -15.310  23.984 -22.011  0.00  0.00    +0.137 C 
BRANCH  24  25
ATOM     25  C   GLU A   4     -14.473  25.149 -21.498  0.00  0.00    +0.227 C 
ATOM     26  O   GLU A   4     -14.047  25.151 -20.343  0.00  0.00    -0.286 OA
ENDBRANCH  24  25
BRANCH  24  27
ATOM     27  CB  GLU A   4     -16.123  23.390 -20.858  0.00  0.00    +0.039 C 
BRANCH  27  28
ATOM     28  CG  GLU A   4     -17.402  22.675 -21.303  0.00  0.00    +0.116 C 
BRANCH  28  29
ATOM     29  CD  GLU A   4     -17.277  21.158 -21.365  0.00  0.00    +0.365 C 
ATOM     30  OE2 GLU A   4     -16.159  20.620 -21.199  0.00  0.00    -0.246 OA
ATOM     31  OE1 GLU A   4     -18.319  20.500 -21.578  0.00  0.00    -0.246 OA
ENDBRANCH  28  29
ENDBRANCH  27  28
ENDBRANCH  24  27
ENDBRANCH  21  24
ENDBRANCH  19  20
BRANCH  19  32
ATOM     32  CB  VAL A   3     -13.235  21.582 -25.540  0.00  0.00    +0.027 C 
ATOM     33  CG2 VAL A   3     -12.219  22.659 -25.178  0.00  0.00    +0.002 C 
ATOM     34  CG1 VAL A   3     -14.105  22.027 -26.714  0.00  0.00    +0.002 C 
ENDBRANCH  19  32
ENDBRANCH   3  19
TORSDOF 15
REMARK  Name = ../refined-set-2016/4c1u/4c1u_pocket.pdb
REMARK  228 active torsions:
REMARK  status: ('A' for Active; 'I' for Inactive)
REMARK    1  A    between atoms: _1  and  _3
REMARK    2  A    between atoms: _3  and  _4
REMARK    3  A    between atoms: _3  and  _6
REMARK    4  A    between atoms: _6  and  _7
REMARK    5  A    between atoms: _12  and  _14
REMARK    6  A    between atoms: _14  and  _15
REMARK    7  A    between atoms: _14  and  _17
REMARK    8  A    between atoms: _17  and  _18
REMARK    9  A    between atoms: _23  and  _25
REMARK   10  A    between atoms: _25  and  _26
REMARK   11  A    between atoms: _29  and  _31
REMARK   12  A    between atoms: _31  and  _32
REMARK   13  A    between atoms: _31  and  _34
REMARK   14  A    between atoms: _34  and  _35
REMARK   15  A    between atoms: _37  and  _39
REMARK   16  A    between atoms: _39  and  _40
REMARK   17  A    between atoms: _43  and  _45
REMARK   18  A    between atoms: _45  and  _46
REMARK   19  A    between atoms: _48  and  _50
REMARK   20  A    between atoms: _50  and  _51
REMARK   21  A    between atoms: _50  and  _53
REMARK   22  A    between atoms: _53  and  _54
REMARK   23  A    between atoms: _54  and  _55
REMARK   24  A    between atoms: _55  and  _56
REMARK   25  A    between atoms: _65  and  _67
REMARK   26  A    between atoms: _67  and  _68
REMARK   27  A    between atoms: _67  and  _70
REMARK   28  A    between atoms: _70  and  _71
REMARK   29  A    between atoms: _81  and  _83
REMARK   30  A    between atoms: _83  and  _84
REMARK   31  A    between atoms: _83  and  _86
REMARK   32  A    between atoms: _86  and  _87
REMARK   33  A    between atoms: _90  and  _92
REMARK   34  A    between atoms: _92  and  _93
REMARK   35  A    between atoms: _92  and  _95
REMARK   36  A    between atoms: _95  and  _96
REMARK   37  A    between atoms: _96  and  _97
REMARK   38  A    between atoms: _102  and  _104
REMARK   39  A    between atoms: _104  and  _105
REMARK   40  A    between atoms: _104  and  _107
REMARK   41  A    between atoms: _107  and  _108
REMARK   42  A    between atoms: _113  and  _115
REMARK   43  A    between atoms: _115  and  _116
REMARK   44  A    between atoms: _115  and  _118
REMARK   45  A    between atoms: _118  and  _119
REMARK   46  A    between atoms: _119  and  _120
REMARK   47  A    between atoms: _123  and  _125
REMARK   48  A    between atoms: _125  and  _126
REMARK   49  A    between atoms: _125  and  _128
REMARK   50  A    between atoms: _128  and  _129
REMARK   51  A    between atoms: _135  and  _137
REMARK   52  A    between atoms: _137  and  _138
REMARK   53  A    between atoms: _141  and  _143
REMARK   54  A    between atoms: _143  and  _144
REMARK   55  A    between atoms: _143  and  _146
REMARK   56  A    between atoms: _146  and  _147
REMARK   57  A    between atoms: _147  and  _148
REMARK   58  A    between atoms: _150  and  _152
REMARK   59  A    between atoms: _152  and  _153
REMARK   60  A    between atoms: _152  and  _155
REMARK   61  A    between atoms: _155  and  _156
REMARK   62  A    between atoms: _158  and  _160
REMARK   63  A    between atoms: _160  and  _161
REMARK   64  A    between atoms: _160  and  _163
REMARK   65  A    between atoms: _163  and  _164
REMARK   66  A    between atoms: _167  and  _169
REMARK   67  A    between atoms: _169  and  _170
REMARK   68  A    between atoms: _169  and  _172
REMARK   69  A    between atoms: _172  and  _173
REMARK   70  A    between atoms: _173  and  _174
REMARK   71  A    between atoms: _174  and  _175
REMARK   72  A    between atoms: _175  and  _176
REMARK   73  A    between atoms: _180  and  _182
REMARK   74  A    between atoms: _182  and  _183
REMARK   75  A    between atoms: _182  and  _185
REMARK   76  A    between atoms: _188  and  _190
REMARK   77  A    between atoms: _190  and  _191
REMARK   78  A    between atoms: _190  and  _193
REMARK   79  A    between atoms: _193  and  _194
REMARK   80  A    between atoms: _196  and  _198
REMARK   81  A    between atoms: _198  and  _199
REMARK   82  A    between atoms: _198  and  _201
REMARK   83  A    between atoms: _204  and  _206
REMARK   84  A    between atoms: _206  and  _207
REMARK   85  A    between atoms: _206  and  _209
REMARK   86  A    between atoms: _209  and  _210
REMARK   87  A    between atoms: _210  and  _211
REMARK   88  A    between atoms: _214  and  _216
REMARK   89  A    between atoms: _216  and  _217
REMARK   90  A    between atoms: _216  and  _219
REMARK   91  A    between atoms: _219  and  _220
REMARK   92  A    between atoms: _223  and  _225
REMARK   93  A    between atoms: _225  and  _226
REMARK   94  A    between atoms: _229  and  _231
REMARK   95  A    between atoms: _231  and  _232
REMARK   96  A    between atoms: _231  and  _234
REMARK   97  A    between atoms: _234  and  _235
REMARK   98  A    between atoms: _246  and  _247
REMARK   99  A    between atoms: _252  and  _254
REMARK  100  A    between atoms: _254  and  _255
REMARK  101  A    between atoms: _258  and  _260
REMARK  102  A    between atoms: _260  and  _261
REMARK  103  A    between atoms: _260  and  _263
REMARK  104  A    between atoms: _263  and  _264
REMARK  105  A    between atoms: _269  and  _271
REMARK  106  A    between atoms: _271  and  _272
REMARK  107  A    between atoms: _271  and  _274
REMARK  108  A    between atoms: _274  and  _275
REMARK  109  A    between atoms: _280  and  _281
REMARK  110  A    between atoms: _283  and  _285
REMARK  111  A    between atoms: _285  and  _286
REMARK  112  A    between atoms: _289  and  _291
REMARK  113  A    between atoms: _291  and  _292
REMARK  114  A    between atoms: _291  and  _294
REMARK  115  A    between atoms: _294  and  _295
REMARK  116  A    between atoms: _295  and  _296
REMARK  117  A    between atoms: _301  and  _303
REMARK  118  A    between atoms: _303  and  _304
REMARK  119  A    between atoms: _303  and  _306
REMARK  120  A    between atoms: _306  and  _307
REMARK  121  A    between atoms: _307  and  _308
REMARK  122  A    between atoms: _310  and  _312
REMARK  123  A    between atoms: _312  and  _313
REMARK  124  A    between atoms: _315  and  _317
REMARK  125  A    between atoms: _317  and  _318
REMARK  126  A    between atoms: _321  and  _323
REMARK  127  A    between atoms: _323  and  _324
REMARK  128  A    between atoms: _323  and  _326
REMARK  129  A    between atoms: _326  and  _327
REMARK  130  A    between atoms: _337  and  _339
REMARK  131  A    between atoms: _339  and  _340
REMARK  132  A    between atoms: _339  and  _342
REMARK  133  A    between atoms: _342  and  _343
REMARK  134  A    between atoms: _343  and  _344
REMARK  135  A    between atoms: _347  and  _349
REMARK  136  A    between atoms: _349  and  _350
REMARK  137  A    between atoms: _352  and  _354
REMARK  138  A    between atoms: _354  and  _355
REMARK  139  A    between atoms: _354  and  _357
REMARK  140  A    between atoms: _360  and  _362
REMARK  141  A    between atoms: _362  and  _363
REMARK  142  A    between atoms: _362  and  _365
REMARK  143  A    between atoms: _365  and  _366
REMARK  144  A    between atoms: _366  and  _367
REMARK  145  A    between atoms: _369  and  _371
REMARK  146  A    between atoms: _371  and  _372
REMARK  147  A    between atoms: _374  and  _376
REMARK  148  A    between atoms: _376  and  _377
REMARK  149  A    between atoms: _379  and  _381
REMARK  150  A    between atoms: _381  and  _382
REMARK  151  A    between atoms: _381  and  _384
REMARK  152  A    between atoms: _387  and  _389
REMARK  153  A    between atoms: _389  and  _390
REMARK  154  A    between atoms: _389  and  _392
REMARK  155  A    between atoms: _392  and  _393
REMARK  156  A    between atoms: _396  and  _398
REMARK  157  A    between atoms: _398  and  _399
REMARK  158  A    between atoms: _398  and  _401
REMARK  159  A    between atoms: _401  and  _402
REMARK  160  A    between atoms: _407  and  _408
REMARK  161  A    between atoms: _410  and  _412
REMARK  162  A    between atoms: _412  and  _413
REMARK  163  A    between atoms: _412  and  _415
REMARK  164  A    between atoms: _415  and  _416
REMARK  165  A    between atoms: _422  and  _424
REMARK  166  A    between atoms: _424  and  _425
REMARK  167  A    between atoms: _424  and  _427
REMARK  168  A    between atoms: _427  and  _428
REMARK  169  A    between atoms: _428  and  _429
REMARK  170  A    between atoms: _434  and  _436
REMARK  171  A    between atoms: _436  and  _437
REMARK  172  A    between atoms: _436  and  _439
REMARK  173  A    between atoms: _439  and  _440
REMARK  174  A    between atoms: _445  and  _446
REMARK  175  A    between atoms: _448  and  _450
REMARK  176  A    between atoms: _450  and  _451
REMARK  177  A    between atoms: _454  and  _456
REMARK  178  A    between atoms: _456  and  _457
REMARK  179  A    between atoms: _456  and  _459
REMARK  180  A    between atoms: _459  and  _460
REMARK  181  A    between atoms: _466  and  _468
REMARK  182  A    between atoms: _468  and  _469
REMARK  183  A    between atoms: _468  and  _471
REMARK  184  A    between atoms: _471  and  _472
REMARK  185  A    between atoms: _474  and  _476
REMARK  186  A    between atoms: _476  and  _477
REMARK  187  A    between atoms: _476  and  _479
REMARK  188  A    between atoms: _479  and  _480
REMARK  189  A    between atoms: _483  and  _485
REMARK  190  A    between atoms: _485  and  _486
REMARK  191  A    between atoms: _485  and  _488
REMARK  192  A    between atoms: _488  and  _489
REMARK  193  A    between atoms: _493  and  _494
REMARK  194  A    between atoms: _499  and  _501
REMARK  195  A    between atoms: _501  and  _502
REMARK  196  A    between atoms: _505  and  _507
REMARK  197  A    between atoms: _507  and  _508
REMARK  198  A    between atoms: _507  and  _510
REMARK  199  A    between atoms: _510  and  _511
REMARK  200  A    between atoms: _514  and  _516
REMARK  201  A    between atoms: _516  and  _517
REMARK  202  A    between atoms: _516  and  _519
REMARK  203  A    between atoms: _519  and  _520
REMARK  204  A    between atoms: _530  and  _532
REMARK  205  A    between atoms: _532  and  _533
REMARK  206  A    between atoms: _532  and  _535
REMARK  207  A    between atoms: _535  and  _536
REMARK  208  A    between atoms: _536  and  _537
REMARK  209  A    between atoms: _539  and  _541
REMARK  210  A    between atoms: _541  and  _542
REMARK  211  A    between atoms: _541  and  _544
REMARK  212  A    between atoms: _544  and  _545
REMARK  213  A    between atoms: _548  and  _550
REMARK  214  A    between atoms: _550  and  _551
REMARK  215  A    between atoms: _550  and  _553
REMARK  216  A    between atoms: _553  and  _554
REMARK  217  A    between atoms: _557  and  _559
REMARK  218  A    between atoms: _559  and  _560
REMARK  219  A    between atoms: _563  and  _565
REMARK  220  A    between atoms: _565  and  _566
REMARK  221  A    between atoms: _568  and  _570
REMARK  222  A    between atoms: _570  and  _571
REMARK  223  A    between atoms: _570  and  _573
REMARK  224  A    between atoms: _573  and  _574
REMARK  225  A    between atoms: _579  and  _581
REMARK  226  A    between atoms: _581  and  _582
REMARK  227  A    between atoms: _581  and  _584
REMARK  228  A    between atoms: _584  and  _585
REMARK                            x       y       z     vdW  Elec       q    Type
REMARK                         _______ _______ _______ _____ _____    ______ ____
ROOT
ATOM      1  CA  TRP A   3     -14.492  25.942  -6.923  0.00  0.00    +0.153 C 
ENDROOT
BRANCH   1   2
ATOM      2  C   TRP A   3     -15.157  27.048  -7.759  0.00  0.00    +0.244 C 
ATOM      3  N   PRO A   4     -16.493  27.209  -7.667  0.00  0.00    -0.273 N 
ATOM      4  CD  PRO A   4     -17.544  26.416  -7.003  0.00  0.00    +0.094 C 
ATOM      5  CG  PRO A   4     -18.760  26.742  -7.815  0.00  0.00    +0.024 C 
ATOM      6  CB  PRO A   4     -18.577  28.172  -8.186  0.00  0.00    +0.030 C 
ATOM      7  CA  PRO A   4     -17.072  28.315  -8.442  0.00  0.00    +0.140 C 
ATOM      8  O   TRP A   3     -14.461  27.759  -8.481  0.00  0.00    -0.273 OA
BRANCH   7   9
ATOM      9  C   PRO A   4     -16.570  29.679  -7.968  0.00  0.00    +0.227 C 
ATOM     10  O   PRO A   4     -16.408  30.592  -8.780  0.00  0.00    -0.286 OA
ENDBRANCH   7   9
ENDBRANCH   1   2
BRANCH   1  13
ATOM     11  C   ALA A   2     -15.208  26.633  -4.715  0.00  0.00    +0.241 C 
ATOM     12  O   ALA A   2     -14.779  27.771  -4.914  0.00  0.00    -0.273 OA
ATOM     13  N   TRP A   3     -15.145  25.679  -5.641  0.00  0.00    -0.297 N 
ATOM     14  H   TRP A   3     -15.561  24.745  -5.453  0.00  0.00    +0.150 HD
BRANCH  11  15
ATOM     15  CA  ALA A   2     -15.836  26.280  -3.364  0.00  0.00    +0.149 C 
ATOM     16  CB  ALA A   2     -14.916  25.347  -2.563  0.00  0.00    +0.031 C 
BRANCH  15  18
ATOM     17  C   ASP A   1     -17.465  24.501  -3.891  0.00  0.00    +0.239 C 
ATOM     18  N   ALA A   2     -17.192  25.730  -3.457  0.00  0.00    -0.297 N 
ATOM     19  H   ALA A   2     -17.987  26.335  -3.167  0.00  0.00    +0.150 HD
ATOM     20  O   ASP A   1     -16.618  23.738  -4.363  0.00  0.00    -0.274 OA
BRANCH  17  21
ATOM     21  CA  ASP A   1     -18.928  24.074  -3.798  0.00  0.00    +0.156 C 
BRANCH  21  22
ATOM     22  N   ASP A   1     -19.730  25.065  -3.083  0.00  0.00    -0.238 NA
ATOM     23  H   ASP A   1     -20.293  25.748  -3.628  0.00  0.00    +0.142 HD
ENDBRANCH  21  22
BRANCH  21  24
ATOM     24  CB  ASP A   1     -19.487  23.850  -5.204  0.00  0.00    +0.140 C 
BRANCH  24  25
ATOM     25  CG  ASP A   1     -20.839  23.167  -5.195  0.00  0.00    +0.367 C 
ATOM     26  OD2 ASP A   1     -21.206  22.567  -4.161  0.00  0.00    -0.246 OA
ATOM     27  OD1 ASP A   1     -21.530  23.217  -6.235  0.00  0.00    -0.246 OA
ENDBRANCH  24  25
ENDBRANCH  21  24
ENDBRANCH  17  21
ENDBRANCH  15  18
ENDBRANCH  11  15
ENDBRANCH   1  13
BRANCH   1  28
ATOM     28  CB  TRP A   3     -14.311  24.658  -7.753  0.00  0.00    +0.057 C 
BRANCH  28  29
ATOM     29  CG  TRP A   3     -15.573  23.987  -8.191  0.00  0.00    -0.002 A 
ATOM     30  CD1 TRP A   3     -16.200  22.944  -7.575  0.00  0.00    +0.068 A 
ATOM     31  NE1 TRP A   3     -17.331  22.592  -8.273  0.00  0.00    -0.352 N 
ATOM     32  HE1 TRP A   3     -17.986  21.827  -8.016  0.00  0.00    +0.166 HD
ATOM     33  CE2 TRP A   3     -17.454  23.413  -9.362  0.00  0.00    +0.056 A 
ATOM     34  CZ2 TRP A   3     -18.425  23.442 -10.360  0.00  0.00    +0.017 A 
ATOM     35  CH2 TRP A   3     -18.291  24.381 -11.344  0.00  0.00    +0.001 A 
ATOM     36  CZ3 TRP A   3     -17.219  25.282 -11.354  0.00  0.00    +0.000 A 
ATOM     37  CE3 TRP A   3     -16.252  25.255 -10.366  0.00  0.00    +0.001 A 
ATOM     38  CD2 TRP A   3     -16.362  24.305  -9.346  0.00  0.00    +0.013 A 
ENDBRANCH  28  29
ENDBRANCH   1  28
TORSDOF 11
REMARK  Name = ../refined-set-2016/4c1u/4c1u_pocket.pdb
REMARK  228 active torsions:
REMARK  status: ('A' for Active; 'I' for Inactive)
REMARK    1  A    between atoms: _1  and  _3
REMARK    2  A    between atoms: _3  and  _4
REMARK    3  A    between atoms: _3  and  _6
REMARK    4  A    between atoms: _6  and  _7
REMARK    5  A    between atoms: _12  and  _14
REMARK    6  A    between atoms: _14  and  _15
REMARK    7  A    between atoms: _14  and  _17
REMARK    8  A    between atoms: _17  and  _18
REMARK    9  A    between atoms: _23  and  _25
REMARK   10  A    between atoms: _25  and  _26
REMARK   11  A    between atoms: _29  and  _31
REMARK   12  A    between atoms: _31  and  _32
REMARK   13  A    between atoms: _31  and  _34
REMARK   14  A    between atoms: _34  and  _35
REMARK   15  A    between atoms: _37  and  _39
REMARK   16  A    between atoms: _39  and  _40
REMARK   17  A    between atoms: _43  and  _45
REMARK   18  A    between atoms: _45  and  _46
REMARK   19  A    between atoms: _48  and  _50
REMARK   20  A    between atoms: _50  and  _51
REMARK   21  A    between atoms: _50  and  _53
REMARK   22  A    between atoms: _53  and  _54
REMARK   23  A    between atoms: _54  and  _55
REMARK   24  A    between atoms: _55  and  _56
REMARK   25  A    between atoms: _65  and  _67
REMARK   26  A    between atoms: _67  and  _68
REMARK   27  A    between atoms: _67  and  _70
REMARK   28  A    between atoms: _70  and  _71
REMARK   29  A    between atoms: _81  and  _83
REMARK   30  A    between atoms: _83  and  _84
REMARK   31  A    between atoms: _83  and  _86
REMARK   32  A    between atoms: _86  and  _87
REMARK   33  A    between atoms: _90  and  _92
REMARK   34  A    between atoms: _92  and  _93
REMARK   35  A    between atoms: _92  and  _95
REMARK   36  A    between atoms: _95  and  _96
REMARK   37  A    between atoms: _96  and  _97
REMARK   38  A    between atoms: _102  and  _104
REMARK   39  A    between atoms: _104  and  _105
REMARK   40  A    between atoms: _104  and  _107
REMARK   41  A    between atoms: _107  and  _108
REMARK   42  A    between atoms: _113  and  _115
REMARK   43  A    between atoms: _115  and  _116
REMARK   44  A    between atoms: _115  and  _118
REMARK   45  A    between atoms: _118  and  _119
REMARK   46  A    between atoms: _119  and  _120
REMARK   47  A    between atoms: _123  and  _125
REMARK   48  A    between atoms: _125  and  _126
REMARK   49  A    between atoms: _125  and  _128
REMARK   50  A    between atoms: _128  and  _129
REMARK   51  A    between atoms: _135  and  _137
REMARK   52  A    between atoms: _137  and  _138
REMARK   53  A    between atoms: _141  and  _143
REMARK   54  A    between atoms: _143  and  _144
REMARK   55  A    between atoms: _143  and  _146
REMARK   56  A    between atoms: _146  and  _147
REMARK   57  A    between atoms: _147  and  _148
REMARK   58  A    between atoms: _150  and  _152
REMARK   59  A    between atoms: _152  and  _153
REMARK   60  A    between atoms: _152  and  _155
REMARK   61  A    between atoms: _155  and  _156
REMARK   62  A    between atoms: _158  and  _160
REMARK   63  A    between atoms: _160  and  _161
REMARK   64  A    between atoms: _160  and  _163
REMARK   65  A    between atoms: _163  and  _164
REMARK   66  A    between atoms: _167  and  _169
REMARK   67  A    between atoms: _169  and  _170
REMARK   68  A    between atoms: _169  and  _172
REMARK   69  A    between atoms: _172  and  _173
REMARK   70  A    between atoms: _173  and  _174
REMARK   71  A    between atoms: _174  and  _175
REMARK   72  A    between atoms: _175  and  _176
REMARK   73  A    between atoms: _180  and  _182
REMARK   74  A    between atoms: _182  and  _183
REMARK   75  A    between atoms: _182  and  _185
REMARK   76  A    between atoms: _188  and  _190
REMARK   77  A    between atoms: _190  and  _191
REMARK   78  A    between atoms: _190  and  _193
REMARK   79  A    between atoms: _193  and  _194
REMARK   80  A    between atoms: _196  and  _198
REMARK   81  A    between atoms: _198  and  _199
REMARK   82  A    between atoms: _198  and  _201
REMARK   83  A    between atoms: _204  and  _206
REMARK   84  A    between atoms: _206  and  _207
REMARK   85  A    between atoms: _206  and  _209
REMARK   86  A    between atoms: _209  and  _210
REMARK   87  A    between atoms: _210  and  _211
REMARK   88  A    between atoms: _214  and  _216
REMARK   89  A    between atoms: _216  and  _217
REMARK   90  A    between atoms: _216  and  _219
REMARK   91  A    between atoms: _219  and  _220
REMARK   92  A    between atoms: _223  and  _225
REMARK   93  A    between atoms: _225  and  _226
REMARK   94  A    between atoms: _229  and  _231
REMARK   95  A    between atoms: _231  and  _232
REMARK   96  A    between atoms: _231  and  _234
REMARK   97  A    between atoms: _234  and  _235
REMARK   98  A    between atoms: _246  and  _247
REMARK   99  A    between atoms: _252  and  _254
REMARK  100  A    between atoms: _254  and  _255
REMARK  101  A    between atoms: _258  and  _260
REMARK  102  A    between atoms: _260  and  _261
REMARK  103  A    between atoms: _260  and  _263
REMARK  104  A    between atoms: _263  and  _264
REMARK  105  A    between atoms: _269  and  _271
REMARK  106  A    between atoms: _271  and  _272
REMARK  107  A    between atoms: _271  and  _274
REMARK  108  A    between atoms: _274  and  _275
REMARK  109  A    between atoms: _280  and  _281
REMARK  110  A    between atoms: _283  and  _285
REMARK  111  A    between atoms: _285  and  _286
REMARK  112  A    between atoms: _289  and  _291
REMARK  113  A    between atoms: _291  and  _292
REMARK  114  A    between atoms: _291  and  _294
REMARK  115  A    between atoms: _294  and  _295
REMARK  116  A    between atoms: _295  and  _296
REMARK  117  A    between atoms: _301  and  _303
REMARK  118  A    between atoms: _303  and  _304
REMARK  119  A    between atoms: _303  and  _306
REMARK  120  A    between atoms: _306  and  _307
REMARK  121  A    between atoms: _307  and  _308
REMARK  122  A    between atoms: _310  and  _312
REMARK  123  A    between atoms: _312  and  _313
REMARK  124  A    between atoms: _315  and  _317
REMARK  125  A    between atoms: _317  and  _318
REMARK  126  A    between atoms: _321  and  _323
REMARK  127  A    between atoms: _323  and  _324
REMARK  128  A    between atoms: _323  and  _326
REMARK  129  A    between atoms: _326  and  _327
REMARK  130  A    between atoms: _337  and  _339
REMARK  131  A    between atoms: _339  and  _340
REMARK  132  A    between atoms: _339  and  _342
REMARK  133  A    between atoms: _342  and  _343
REMARK  134  A    between atoms: _343  and  _344
REMARK  135  A    between atoms: _347  and  _349
REMARK  136  A    between atoms: _349  and  _350
REMARK  137  A    between atoms: _352  and  _354
REMARK  138  A    between atoms: _354  and  _355
REMARK  139  A    between atoms: _354  and  _357
REMARK  140  A    between atoms: _360  and  _362
REMARK  141  A    between atoms: _362  and  _363
REMARK  142  A    between atoms: _362  and  _365
REMARK  143  A    between atoms: _365  and  _366
REMARK  144  A    between atoms: _366  and  _367
REMARK  145  A    between atoms: _369  and  _371
REMARK  146  A    between atoms: _371  and  _372
REMARK  147  A    between atoms: _374  and  _376
REMARK  148  A    between atoms: _376  and  _377
REMARK  149  A    between atoms: _379  and  _381
REMARK  150  A    between atoms: _381  and  _382
REMARK  151  A    between atoms: _381  and  _384
REMARK  152  A    between atoms: _387  and  _389
REMARK  153  A    between atoms: _389  and  _390
REMARK  154  A    between atoms: _389  and  _392
REMARK  155  A    between atoms: _392  and  _393
REMARK  156  A    between atoms: _396  and  _398
REMARK  157  A    between atoms: _398  and  _399
REMARK  158  A    between atoms: _398  and  _401
REMARK  159  A    between atoms: _401  and  _402
REMARK  160  A    between atoms: _407  and  _408
REMARK  161  A    between atoms: _410  and  _412
REMARK  162  A    between atoms: _412  and  _413
REMARK  163  A    between atoms: _412  and  _415
REMARK  164  A    between atoms: _415  and  _416
REMARK  165  A    between atoms: _422  and  _424
REMARK  166  A    between atoms: _424  and  _425
REMARK  167  A    between atoms: _424  and  _427
REMARK  168  A    between atoms: _427  and  _428
REMARK  169  A    between atoms: _428  and  _429
REMARK  170  A    between atoms: _434  and  _436
REMARK  171  A    between atoms: _436  and  _437
REMARK  172  A    between atoms: _436  and  _439
REMARK  173  A    between atoms: _439  and  _440
REMARK  174  A    between atoms: _445  and  _446
REMARK  175  A    between atoms: _448  and  _450
REMARK  176  A    between atoms: _450  and  _451
REMARK  177  A    between atoms: _454  and  _456
REMARK  178  A    between atoms: _456  and  _457
REMARK  179  A    between atoms: _456  and  _459
REMARK  180  A    between atoms: _459  and  _460
REMARK  181  A    between atoms: _466  and  _468
REMARK  182  A    between atoms: _468  and  _469
REMARK  183  A    between atoms: _468  and  _471
REMARK  184  A    between atoms: _471  and  _472
REMARK  185  A    between atoms: _474  and  _476
REMARK  186  A    between atoms: _476  and  _477
REMARK  187  A    between atoms: _476  and  _479
REMARK  188  A    between atoms: _479  and  _480
REMARK  189  A    between atoms: _483  and  _485
REMARK  190  A    between atoms: _485  and  _486
REMARK  191  A    between atoms: _485  and  _488
REMARK  192  A    between atoms: _488  and  _489
REMARK  193  A    between atoms: _493  and  _494
REMARK  194  A    between atoms: _499  and  _501
REMARK  195  A    between atoms: _501  and  _502
REMARK  196  A    between atoms: _505  and  _507
REMARK  197  A    between atoms: _507  and  _508
REMARK  198  A    between atoms: _507  and  _510
REMARK  199  A    between atoms: _510  and  _511
REMARK  200  A    between atoms: _514  and  _516
REMARK  201  A    between atoms: _516  and  _517
REMARK  202  A    between atoms: _516  and  _519
REMARK  203  A    between atoms: _519  and  _520
REMARK  204  A    between atoms: _530  and  _532
REMARK  205  A    between atoms: _532  and  _533
REMARK  206  A    between atoms: _532  and  _535
REMARK  207  A    between atoms: _535  and  _536
REMARK  208  A    between atoms: _536  and  _537
REMARK  209  A    between atoms: _539  and  _541
REMARK  210  A    between atoms: _541  and  _542
REMARK  211  A    between atoms: _541  and  _544
REMARK  212  A    between atoms: _544  and  _545
REMARK  213  A    between atoms: _548  and  _550
REMARK  214  A    between atoms: _550  and  _551
REMARK  215  A    between atoms: _550  and  _553
REMARK  216  A    between atoms: _553  and  _554
REMARK  217  A    between atoms: _557  and  _559
REMARK  218  A    between atoms: _559  and  _560
REMARK  219  A    between atoms: _563  and  _565
REMARK  220  A    between atoms: _565  and  _566
REMARK  221  A    between atoms: _568  and  _570
REMARK  222  A    between atoms: _570  and  _571
REMARK  223  A    between atoms: _570  and  _573
REMARK  224  A    between atoms: _573  and  _574
REMARK  225  A    between atoms: _579  and  _581
REMARK  226  A    between atoms: _581  and  _582
REMARK  227  A    between atoms: _581  and  _584
REMARK  228  A    between atoms: _584  and  _585
REMARK                            x       y       z     vdW  Elec       q    Type
REMARK                         _______ _______ _______ _____ _____    ______ ____
ROOT
ATOM      1  CA  HIS A   2     -12.770  30.540 -10.552  0.00  0.00    +0.143 C 
ENDROOT
BRANCH   1   4
ATOM      2  C   ALA A   1     -11.915  30.405  -8.278  0.00  0.00    +0.238 C 
ATOM      3  O   ALA A   1     -10.853  30.930  -8.609  0.00  0.00    -0.274 OA
ATOM      4  N   HIS A   2     -12.904  30.182  -9.141  0.00  0.00    -0.298 N 
ATOM      5  H   HIS A   2     -13.787  29.746  -8.806  0.00  0.00    +0.150 HD
BRANCH   2   6
ATOM      6  CA  ALA A   1     -12.152  29.988  -6.825  0.00  0.00    +0.145 C 
ATOM      7  CB  ALA A   1     -11.595  28.604  -6.572  0.00  0.00    +0.028 C 
BRANCH   6   8
ATOM      8  N   ALA A   1     -13.563  30.021  -6.476  0.00  0.00    -0.238 NA
ATOM      9  H   ALA A   1     -14.027  29.143  -6.168  0.00  0.00    +0.142 HD
ENDBRANCH   6   8
ENDBRANCH   2   6
ENDBRANCH   1   4
BRANCH   1  10
ATOM     10  C   HIS A   2     -12.478  32.026 -10.731  0.00  0.00    +0.227 C 
ATOM     11  O   HIS A   2     -11.721  32.414 -11.621  0.00  0.00    -0.286 OA
ENDBRANCH   1  10
BRANCH   1  12
ATOM     12  CB  HIS A   2     -14.023  30.148 -11.339  0.00  0.00    +0.075 C 
BRANCH  12  13
ATOM     13  CG  HIS A   2     -13.980  28.753 -11.878  0.00  0.00    +0.082 A 
ATOM     14  CD2 HIS A   2     -13.482  27.608 -11.354  0.00  0.00    +0.115 A 
ATOM     15  NE2 HIS A   2     -13.701  26.610 -12.270  0.00  0.00    -0.221 NA
ATOM     16  CE1 HIS A   2     -14.312  27.123 -13.323  0.00  0.00    +0.199 A 
ATOM     17  ND1 HIS A   2     -14.491  28.414 -13.114  0.00  0.00    -0.227 NA
ENDBRANCH  12  13
ENDBRANCH   1  12
TORSDOF 6
REMARK  Name = ../refined-set-2016/4c1u/4c1u_pocket.pdb
REMARK  228 active torsions:
REMARK  status: ('A' for Active; 'I' for Inactive)
REMARK    1  A    between atoms: _1  and  _3
REMARK    2  A    between atoms: _3  and  _4
REMARK    3  A    between atoms: _3  and  _6
REMARK    4  A    between atoms: _6  and  _7
REMARK    5  A    between atoms: _12  and  _14
REMARK    6  A    between atoms: _14  and  _15
REMARK    7  A    between atoms: _14  and  _17
REMARK    8  A    between atoms: _17  and  _18
REMARK    9  A    between atoms: _23  and  _25
REMARK   10  A    between atoms: _25  and  _26
REMARK   11  A    between atoms: _29  and  _31
REMARK   12  A    between atoms: _31  and  _32
REMARK   13  A    between atoms: _31  and  _34
REMARK   14  A    between atoms: _34  and  _35
REMARK   15  A    between atoms: _37  and  _39
REMARK   16  A    between atoms: _39  and  _40
REMARK   17  A    between atoms: _43  and  _45
REMARK   18  A    between atoms: _45  and  _46
REMARK   19  A    between atoms: _48  and  _50
REMARK   20  A    between atoms: _50  and  _51
REMARK   21  A    between atoms: _50  and  _53
REMARK   22  A    between atoms: _53  and  _54
REMARK   23  A    between atoms: _54  and  _55
REMARK   24  A    between atoms: _55  and  _56
REMARK   25  A    between atoms: _65  and  _67
REMARK   26  A    between atoms: _67  and  _68
REMARK   27  A    between atoms: _67  and  _70
REMARK   28  A    between atoms: _70  and  _71
REMARK   29  A    between atoms: _81  and  _83
REMARK   30  A    between atoms: _83  and  _84
REMARK   31  A    between atoms: _83  and  _86
REMARK   32  A    between atoms: _86  and  _87
REMARK   33  A    between atoms: _90  and  _92
REMARK   34  A    between atoms: _92  and  _93
REMARK   35  A    between atoms: _92  and  _95
REMARK   36  A    between atoms: _95  and  _96
REMARK   37  A    between atoms: _96  and  _97
REMARK   38  A    between atoms: _102  and  _104
REMARK   39  A    between atoms: _104  and  _105
REMARK   40  A    between atoms: _104  and  _107
REMARK   41  A    between atoms: _107  and  _108
REMARK   42  A    between atoms: _113  and  _115
REMARK   43  A    between atoms: _115  and  _116
REMARK   44  A    between atoms: _115  and  _118
REMARK   45  A    between atoms: _118  and  _119
REMARK   46  A    between atoms: _119  and  _120
REMARK   47  A    between atoms: _123  and  _125
REMARK   48  A    between atoms: _125  and  _126
REMARK   49  A    between atoms: _125  and  _128
REMARK   50  A    between atoms: _128  and  _129
REMARK   51  A    between atoms: _135  and  _137
REMARK   52  A    between atoms: _137  and  _138
REMARK   53  A    between atoms: _141  and  _143
REMARK   54  A    between atoms: _143  and  _144
REMARK   55  A    between atoms: _143  and  _146
REMARK   56  A    between atoms: _146  and  _147
REMARK   57  A    between atoms: _147  and  _148
REMARK   58  A    between atoms: _150  and  _152
REMARK   59  A    between atoms: _152  and  _153
REMARK   60  A    between atoms: _152  and  _155
REMARK   61  A    between atoms: _155  and  _156
REMARK   62  A    between atoms: _158  and  _160
REMARK   63  A    between atoms: _160  and  _161
REMARK   64  A    between atoms: _160  and  _163
REMARK   65  A    between atoms: _163  and  _164
REMARK   66  A    between atoms: _167  and  _169
REMARK   67  A    between atoms: _169  and  _170
REMARK   68  A    between atoms: _169  and  _172
REMARK   69  A    between atoms: _172  and  _173
REMARK   70  A    between atoms: _173  and  _174
REMARK   71  A    between atoms: _174  and  _175
REMARK   72  A    between atoms: _175  and  _176
REMARK   73  A    between atoms: _180  and  _182
REMARK   74  A    between atoms: _182  and  _183
REMARK   75  A    between atoms: _182  and  _185
REMARK   76  A    between atoms: _188  and  _190
REMARK   77  A    between atoms: _190  and  _191
REMARK   78  A    between atoms: _190  and  _193
REMARK   79  A    between atoms: _193  and  _194
REMARK   80  A    between atoms: _196  and  _198
REMARK   81  A    between atoms: _198  and  _199
REMARK   82  A    between atoms: _198  and  _201
REMARK   83  A    between atoms: _204  and  _206
REMARK   84  A    between atoms: _206  and  _207
REMARK   85  A    between atoms: _206  and  _209
REMARK   86  A    between atoms: _209  and  _210
REMARK   87  A    between atoms: _210  and  _211
REMARK   88  A    between atoms: _214  and  _216
REMARK   89  A    between atoms: _216  and  _217
REMARK   90  A    between atoms: _216  and  _219
REMARK   91  A    between atoms: _219  and  _220
REMARK   92  A    between atoms: _223  and  _225
REMARK   93  A    between atoms: _225  and  _226
REMARK   94  A    between atoms: _229  and  _231
REMARK   95  A    between atoms: _231  and  _232
REMARK   96  A    between atoms: _231  and  _234
REMARK   97  A    between atoms: _234  and  _235
REMARK   98  A    between atoms: _246  and  _247
REMARK   99  A    between atoms: _252  and  _254
REMARK  100  A    between atoms: _254  and  _255
REMARK  101  A    between atoms: _258  and  _260
REMARK  102  A    between atoms: _260  and  _261
REMARK  103  A    between atoms: _260  and  _263
REMARK  104  A    between atoms: _263  and  _264
REMARK  105  A    between atoms: _269  and  _271
REMARK  106  A    between atoms: _271  and  _272
REMARK  107  A    between atoms: _271  and  _274
REMARK  108  A    between atoms: _274  and  _275
REMARK  109  A    between atoms: _280  and  _281
REMARK  110  A    between atoms: _283  and  _285
REMARK  111  A    between atoms: _285  and  _286
REMARK  112  A    between atoms: _289  and  _291
REMARK  113  A    between atoms: _291  and  _292
REMARK  114  A    between atoms: _291  and  _294
REMARK  115  A    between atoms: _294  and  _295
REMARK  116  A    between atoms: _295  and  _296
REMARK  117  A    between atoms: _301  and  _303
REMARK  118  A    between atoms: _303  and  _304
REMARK  119  A    between atoms: _303  and  _306
REMARK  120  A    between atoms: _306  and  _307
REMARK  121  A    between atoms: _307  and  _308
REMARK  122  A    between atoms: _310  and  _312
REMARK  123  A    between atoms: _312  and  _313
REMARK  124  A    between atoms: _315  and  _317
REMARK  125  A    between atoms: _317  and  _318
REMARK  126  A    between atoms: _321  and  _323
REMARK  127  A    between atoms: _323  and  _324
REMARK  128  A    between atoms: _323  and  _326
REMARK  129  A    between atoms: _326  and  _327
REMARK  130  A    between atoms: _337  and  _339
REMARK  131  A    between atoms: _339  and  _340
REMARK  132  A    between atoms: _339  and  _342
REMARK  133  A    between atoms: _342  and  _343
REMARK  134  A    between atoms: _343  and  _344
REMARK  135  A    between atoms: _347  and  _349
REMARK  136  A    between atoms: _349  and  _350
REMARK  137  A    between atoms: _352  and  _354
REMARK  138  A    between atoms: _354  and  _355
REMARK  139  A    between atoms: _354  and  _357
REMARK  140  A    between atoms: _360  and  _362
REMARK  141  A    between atoms: _362  and  _363
REMARK  142  A    between atoms: _362  and  _365
REMARK  143  A    between atoms: _365  and  _366
REMARK  144  A    between atoms: _366  and  _367
REMARK  145  A    between atoms: _369  and  _371
REMARK  146  A    between atoms: _371  and  _372
REMARK  147  A    between atoms: _374  and  _376
REMARK  148  A    between atoms: _376  and  _377
REMARK  149  A    between atoms: _379  and  _381
REMARK  150  A    between atoms: _381  and  _382
REMARK  151  A    between atoms: _381  and  _384
REMARK  152  A    between atoms: _387  and  _389
REMARK  153  A    between atoms: _389  and  _390
REMARK  154  A    between atoms: _389  and  _392
REMARK  155  A    between atoms: _392  and  _393
REMARK  156  A    between atoms: _396  and  _398
REMARK  157  A    between atoms: _398  and  _399
REMARK  158  A    between atoms: _398  and  _401
REMARK  159  A    between atoms: _401  and  _402
REMARK  160  A    between atoms: _407  and  _408
REMARK  161  A    between atoms: _410  and  _412
REMARK  162  A    between atoms: _412  and  _413
REMARK  163  A    between atoms: _412  and  _415
REMARK  164  A    between atoms: _415  and  _416
REMARK  165  A    between atoms: _422  and  _424
REMARK  166  A    between atoms: _424  and  _425
REMARK  167  A    between atoms: _424  and  _427
REMARK  168  A    between atoms: _427  and  _428
REMARK  169  A    between atoms: _428  and  _429
REMARK  170  A    between atoms: _434  and  _436
REMARK  171  A    between atoms: _436  and  _437
REMARK  172  A    between atoms: _436  and  _439
REMARK  173  A    between atoms: _439  and  _440
REMARK  174  A    between atoms: _445  and  _446
REMARK  175  A    between atoms: _448  and  _450
REMARK  176  A    between atoms: _450  and  _451
REMARK  177  A    between atoms: _454  and  _456
REMARK  178  A    between atoms: _456  and  _457
REMARK  179  A    between atoms: _456  and  _459
REMARK  180  A    between atoms: _459  and  _460
REMARK  181  A    between atoms: _466  and  _468
REMARK  182  A    between atoms: _468  and  _469
REMARK  183  A    between atoms: _468  and  _471
REMARK  184  A    between atoms: _471  and  _472
REMARK  185  A    between atoms: _474  and  _476
REMARK  186  A    between atoms: _476  and  _477
REMARK  187  A    between atoms: _476  and  _479
REMARK  188  A    between atoms: _479  and  _480
REMARK  189  A    between atoms: _483  and  _485
REMARK  190  A    between atoms: _485  and  _486
REMARK  191  A    between atoms: _485  and  _488
REMARK  192  A    between atoms: _488  and  _489
REMARK  193  A    between atoms: _493  and  _494
REMARK  194  A    between atoms: _499  and  _501
REMARK  195  A    between atoms: _501  and  _502
REMARK  196  A    between atoms: _505  and  _507
REMARK  197  A    between atoms: _507  and  _508
REMARK  198  A    between atoms: _507  and  _510
REMARK  199  A    between atoms: _510  and  _511
REMARK  200  A    between atoms: _514  and  _516
REMARK  201  A    between atoms: _516  and  _517
REMARK  202  A    between atoms: _516  and  _519
REMARK  203  A    between atoms: _519  and  _520
REMARK  204  A    between atoms: _530  and  _532
REMARK  205  A    between atoms: _532  and  _533
REMARK  206  A    between atoms: _532  and  _535
REMARK  207  A    between atoms: _535  and  _536
REMARK  208  A    between atoms: _536  and  _537
REMARK  209  A    between atoms: _539  and  _541
REMARK  210  A    between atoms: _541  and  _542
REMARK  211  A    between atoms: _541  and  _544
REMARK  212  A    between atoms: _544  and  _545
REMARK  213  A    between atoms: _548  and  _550
REMARK  214  A    between atoms: _550  and  _551
REMARK  215  A    between atoms: _550  and  _553
REMARK  216  A    between atoms: _553  and  _554
REMARK  217  A    between atoms: _557  and  _559
REMARK  218  A    between atoms: _559  and  _560
REMARK  219  A    between atoms: _563  and  _565
REMARK  220  A    between atoms: _565  and  _566
REMARK  221  A    between atoms: _568  and  _570
REMARK  222  A    between atoms: _570  and  _571
REMARK  223  A    between atoms: _570  and  _573
REMARK  224  A    between atoms: _573  and  _574
REMARK  225  A    between atoms: _579  and  _581
REMARK  226  A    between atoms: _581  and  _582
REMARK  227  A    between atoms: _581  and  _584
REMARK  228  A    between atoms: _584  and  _585
REMARK                            x       y       z     vdW  Elec       q    Type
REMARK                         _______ _______ _______ _____ _____    ______ ____
ROOT
ATOM      1  CG  TYR A   1      -9.061  29.346 -10.866  0.00  0.00    -0.020 A 
ATOM      2  CD2 TYR A   1      -8.572  29.238  -9.572  0.00  0.00    -0.001 A 
ATOM      3  CE2 TYR A   1      -8.942  28.178  -8.758  0.00  0.00    +0.036 A 
ATOM      4  CZ  TYR A   1      -9.805  27.215  -9.244  0.00  0.00    +0.134 A 
ATOM      5  CE1 TYR A   1     -10.294  27.301 -10.525  0.00  0.00    +0.036 A 
ATOM      6  CD1 TYR A   1      -9.920  28.357 -11.326  0.00  0.00    -0.001 A 
ENDROOT
BRANCH   4   7
ATOM      7  OH  TYR A   1     -10.192  26.156  -8.457  0.00  0.00    -0.506 OA
ATOM      8  HH  TYR A   1      -9.761  26.231  -7.569  0.00  0.00    +0.292 HD
ENDBRANCH   4   7
BRANCH   1   9
ATOM      9  CB  TYR A   1      -8.671  30.490 -11.776  0.00  0.00    +0.051 C 
BRANCH   9  10
ATOM     10  CA  TYR A   1      -8.013  31.716 -11.130  0.00  0.00    +0.137 C 
BRANCH  10  11
ATOM     11  N   TYR A   1      -8.810  32.270 -10.032  0.00  0.00    -0.239 NA
ATOM     12  H   TYR A   1      -9.662  31.765  -9.716  0.00  0.00    +0.142 HD
ENDBRANCH  10  11
BRANCH  10  13
ATOM     13  C   TYR A   1      -7.843  32.756 -12.228  0.00  0.00    +0.224 C 
ATOM     14  O   TYR A   1      -6.728  33.027 -12.678  0.00  0.00    -0.287 OA
ENDBRANCH  10  13
ENDBRANCH   9  10
ENDBRANCH   1   9
TORSDOF 5
REMARK  Name = ../refined-set-2016/4c1u/4c1u_pocket.pdb
REMARK  228 active torsions:
REMARK  status: ('A' for Active; 'I' for Inactive)
REMARK    1  A    between atoms: _1  and  _3
REMARK    2  A    between atoms: _3  and  _4
REMARK    3  A    between atoms: _3  and  _6
REMARK    4  A    between atoms: _6  and  _7
REMARK    5  A    between atoms: _12  and  _14
REMARK    6  A    between atoms: _14  and  _15
REMARK    7  A    between atoms: _14  and  _17
REMARK    8  A    between atoms: _17  and  _18
REMARK    9  A    between atoms: _23  and  _25
REMARK   10  A    between atoms: _25  and  _26
REMARK   11  A    between atoms: _29  and  _31
REMARK   12  A    between atoms: _31  and  _32
REMARK   13  A    between atoms: _31  and  _34
REMARK   14  A    between atoms: _34  and  _35
REMARK   15  A    between atoms: _37  and  _39
REMARK   16  A    between atoms: _39  and  _40
REMARK   17  A    between atoms: _43  and  _45
REMARK   18  A    between atoms: _45  and  _46
REMARK   19  A    between atoms: _48  and  _50
REMARK   20  A    between atoms: _50  and  _51
REMARK   21  A    between atoms: _50  and  _53
REMARK   22  A    between atoms: _53  and  _54
REMARK   23  A    between atoms: _54  and  _55
REMARK   24  A    between atoms: _55  and  _56
REMARK   25  A    between atoms: _65  and  _67
REMARK   26  A    between atoms: _67  and  _68
REMARK   27  A    between atoms: _67  and  _70
REMARK   28  A    between atoms: _70  and  _71
REMARK   29  A    between atoms: _81  and  _83
REMARK   30  A    between atoms: _83  and  _84
REMARK   31  A    between atoms: _83  and  _86
REMARK   32  A    between atoms: _86  and  _87
REMARK   33  A    between atoms: _90  and  _92
REMARK   34  A    between atoms: _92  and  _93
REMARK   35  A    between atoms: _92  and  _95
REMARK   36  A    between atoms: _95  and  _96
REMARK   37  A    between atoms: _96  and  _97
REMARK   38  A    between atoms: _102  and  _104
REMARK   39  A    between atoms: _104  and  _105
REMARK   40  A    between atoms: _104  and  _107
REMARK   41  A    between atoms: _107  and  _108
REMARK   42  A    between atoms: _113  and  _115
REMARK   43  A    between atoms: _115  and  _116
REMARK   44  A    between atoms: _115  and  _118
REMARK   45  A    between atoms: _118  and  _119
REMARK   46  A    between atoms: _119  and  _120
REMARK   47  A    between atoms: _123  and  _125
REMARK   48  A    between atoms: _125  and  _126
REMARK   49  A    between atoms: _125  and  _128
REMARK   50  A    between atoms: _128  and  _129
REMARK   51  A    between atoms: _135  and  _137
REMARK   52  A    between atoms: _137  and  _138
REMARK   53  A    between atoms: _141  and  _143
REMARK   54  A    between atoms: _143  and  _144
REMARK   55  A    between atoms: _143  and  _146
REMARK   56  A    between atoms: _146  and  _147
REMARK   57  A    between atoms: _147  and  _148
REMARK   58  A    between atoms: _150  and  _152
REMARK   59  A    between atoms: _152  and  _153
REMARK   60  A    between atoms: _152  and  _155
REMARK   61  A    between atoms: _155  and  _156
REMARK   62  A    between atoms: _158  and  _160
REMARK   63  A    between atoms: _160  and  _161
REMARK   64  A    between atoms: _160  and  _163
REMARK   65  A    between atoms: _163  and  _164
REMARK   66  A    between atoms: _167  and  _169
REMARK   67  A    between atoms: _169  and  _170
REMARK   68  A    between atoms: _169  and  _172
REMARK   69  A    between atoms: _172  and  _173
REMARK   70  A    between atoms: _173  and  _174
REMARK   71  A    between atoms: _174  and  _175
REMARK   72  A    between atoms: _175  and  _176
REMARK   73  A    between atoms: _180  and  _182
REMARK   74  A    between atoms: _182  and  _183
REMARK   75  A    between atoms: _182  and  _185
REMARK   76  A    between atoms: _188  and  _190
REMARK   77  A    between atoms: _190  and  _191
REMARK   78  A    between atoms: _190  and  _193
REMARK   79  A    between atoms: _193  and  _194
REMARK   80  A    between atoms: _196  and  _198
REMARK   81  A    between atoms: _198  and  _199
REMARK   82  A    between atoms: _198  and  _201
REMARK   83  A    between atoms: _204  and  _206
REMARK   84  A    between atoms: _206  and  _207
REMARK   85  A    between atoms: _206  and  _209
REMARK   86  A    between atoms: _209  and  _210
REMARK   87  A    between atoms: _210  and  _211
REMARK   88  A    between atoms: _214  and  _216
REMARK   89  A    between atoms: _216  and  _217
REMARK   90  A    between atoms: _216  and  _219
REMARK   91  A    between atoms: _219  and  _220
REMARK   92  A    between atoms: _223  and  _225
REMARK   93  A    between atoms: _225  and  _226
REMARK   94  A    between atoms: _229  and  _231
REMARK   95  A    between atoms: _231  and  _232
REMARK   96  A    between atoms: _231  and  _234
REMARK   97  A    between atoms: _234  and  _235
REMARK   98  A    between atoms: _246  and  _247
REMARK   99  A    between atoms: _252  and  _254
REMARK  100  A    between atoms: _254  and  _255
REMARK  101  A    between atoms: _258  and  _260
REMARK  102  A    between atoms: _260  and  _261
REMARK  103  A    between atoms: _260  and  _263
REMARK  104  A    between atoms: _263  and  _264
REMARK  105  A    between atoms: _269  and  _271
REMARK  106  A    between atoms: _271  and  _272
REMARK  107  A    between atoms: _271  and  _274
REMARK  108  A    between atoms: _274  and  _275
REMARK  109  A    between atoms: _280  and  _281
REMARK  110  A    between atoms: _283  and  _285
REMARK  111  A    between atoms: _285  and  _286
REMARK  112  A    between atoms: _289  and  _291
REMARK  113  A    between atoms: _291  and  _292
REMARK  114  A    between atoms: _291  and  _294
REMARK  115  A    between atoms: _294  and  _295
REMARK  116  A    between atoms: _295  and  _296
REMARK  117  A    between atoms: _301  and  _303
REMARK  118  A    between atoms: _303  and  _304
REMARK  119  A    between atoms: _303  and  _306
REMARK  120  A    between atoms: _306  and  _307
REMARK  121  A    between atoms: _307  and  _308
REMARK  122  A    between atoms: _310  and  _312
REMARK  123  A    between atoms: _312  and  _313
REMARK  124  A    between atoms: _315  and  _317
REMARK  125  A    between atoms: _317  and  _318
REMARK  126  A    between atoms: _321  and  _323
REMARK  127  A    between atoms: _323  and  _324
REMARK  128  A    between atoms: _323  and  _326
REMARK  129  A    between atoms: _326  and  _327
REMARK  130  A    between atoms: _337  and  _339
REMARK  131  A    between atoms: _339  and  _340
REMARK  132  A    between atoms: _339  and  _342
REMARK  133  A    between atoms: _342  and  _343
REMARK  134  A    between atoms: _343  and  _344
REMARK  135  A    between atoms: _347  and  _349
REMARK  136  A    between atoms: _349  and  _350
REMARK  137  A    between atoms: _352  and  _354
REMARK  138  A    between atoms: _354  and  _355
REMARK  139  A    between atoms: _354  and  _357
REMARK  140  A    between atoms: _360  and  _362
REMARK  141  A    between atoms: _362  and  _363
REMARK  142  A    between atoms: _362  and  _365
REMARK  143  A    between atoms: _365  and  _366
REMARK  144  A    between atoms: _366  and  _367
REMARK  145  A    between atoms: _369  and  _371
REMARK  146  A    between atoms: _371  and  _372
REMARK  147  A    between atoms: _374  and  _376
REMARK  148  A    between atoms: _376  and  _377
REMARK  149  A    between atoms: _379  and  _381
REMARK  150  A    between atoms: _381  and  _382
REMARK  151  A    between atoms: _381  and  _384
REMARK  152  A    between atoms: _387  and  _389
REMARK  153  A    between atoms: _389  and  _390
REMARK  154  A    between atoms: _389  and  _392
REMARK  155  A    between atoms: _392  and  _393
REMARK  156  A    between atoms: _396  and  _398
REMARK  157  A    between atoms: _398  and  _399
REMARK  158  A    between atoms: _398  and  _401
REMARK  159  A    between atoms: _401  and  _402
REMARK  160  A    between atoms: _407  and  _408
REMARK  161  A    between atoms: _410  and  _412
REMARK  162  A    between atoms: _412  and  _413
REMARK  163  A    between atoms: _412  and  _415
REMARK  164  A    between atoms: _415  and  _416
REMARK  165  A    between atoms: _422  and  _424
REMARK  166  A    between atoms: _424  and  _425
REMARK  167  A    between atoms: _424  and  _427
REMARK  168  A    between atoms: _427  and  _428
REMARK  169  A    between atoms: _428  and  _429
REMARK  170  A    between atoms: _434  and  _436
REMARK  171  A    between atoms: _436  and  _437
REMARK  172  A    between atoms: _436  and  _439
REMARK  173  A    between atoms: _439  and  _440
REMARK  174  A    between atoms: _445  and  _446
REMARK  175  A    between atoms: _448  and  _450
REMARK  176  A    between atoms: _450  and  _451
REMARK  177  A    between atoms: _454  and  _456
REMARK  178  A    between atoms: _456  and  _457
REMARK  179  A    between atoms: _456  and  _459
REMARK  180  A    between atoms: _459  and  _460
REMARK  181  A    between atoms: _466  and  _468
REMARK  182  A    between atoms: _468  and  _469
REMARK  183  A    between atoms: _468  and  _471
REMARK  184  A    between atoms: _471  and  _472
REMARK  185  A    between atoms: _474  and  _476
REMARK  186  A    between atoms: _476  and  _477
REMARK  187  A    between atoms: _476  and  _479
REMARK  188  A    between atoms: _479  and  _480
REMARK  189  A    between atoms: _483  and  _485
REMARK  190  A    between atoms: _485  and  _486
REMARK  191  A    between atoms: _485  and  _488
REMARK  192  A    between atoms: _488  and  _489
REMARK  193  A    between atoms: _493  and  _494
REMARK  194  A    between atoms: _499  and  _501
REMARK  195  A    between atoms: _501  and  _502
REMARK  196  A    between atoms: _505  and  _507
REMARK  197  A    between atoms: _507  and  _508
REMARK  198  A    between atoms: _507  and  _510
REMARK  199  A    between atoms: _510  and  _511
REMARK  200  A    between atoms: _514  and  _516
REMARK  201  A    between atoms: _516  and  _517
REMARK  202  A    between atoms: _516  and  _519
REMARK  203  A    between atoms: _519  and  _520
REMARK  204  A    between atoms: _530  and  _532
REMARK  205  A    between atoms: _532  and  _533
REMARK  206  A    between atoms: _532  and  _535
REMARK  207  A    between atoms: _535  and  _536
REMARK  208  A    between atoms: _536  and  _537
REMARK  209  A    between atoms: _539  and  _541
REMARK  210  A    between atoms: _541  and  _542
REMARK  211  A    between atoms: _541  and  _544
REMARK  212  A    between atoms: _544  and  _545
REMARK  213  A    between atoms: _548  and  _550
REMARK  214  A    between atoms: _550  and  _551
REMARK  215  A    between atoms: _550  and  _553
REMARK  216  A    between atoms: _553  and  _554
REMARK  217  A    between atoms: _557  and  _559
REMARK  218  A    between atoms: _559  and  _560
REMARK  219  A    between atoms: _563  and  _565
REMARK  220  A    between atoms: _565  and  _566
REMARK  221  A    between atoms: _568  and  _570
REMARK  222  A    between atoms: _570  and  _571
REMARK  223  A    between atoms: _570  and  _573
REMARK  224  A    between atoms: _573  and  _574
REMARK  225  A    between atoms: _579  and  _581
REMARK  226  A    between atoms: _581  and  _582
REMARK  227  A    between atoms: _581  and  _584
REMARK  228  A    between atoms: _584  and  _585
REMARK                            x       y       z     vdW  Elec       q    Type
REMARK                         _______ _______ _______ _____ _____    ______ ____
ROOT
ATOM      1  CA  GLN A   2     -25.683  23.278 -10.111  0.00  0.00    +0.137 C 
ENDROOT
BRANCH   1   3
ATOM      2  C   ALA A   1     -24.315  25.137  -9.340  0.00  0.00    +0.238 C 
ATOM      3  N   GLN A   2     -24.813  23.920  -9.124  0.00  0.00    -0.298 N 
ATOM      4  H   GLN A   2     -24.581  23.420  -8.242  0.00  0.00    +0.150 HD
ATOM      5  O   ALA A   1     -24.774  25.904 -10.187  0.00  0.00    -0.274 OA
BRANCH   2   6
ATOM      6  CA  ALA A   1     -23.128  25.568  -8.473  0.00  0.00    +0.145 C 
ATOM      7  CB  ALA A   1     -21.827  25.050  -9.078  0.00  0.00    +0.028 C 
BRANCH   6   8
ATOM      8  N   ALA A   1     -23.246  25.125  -7.089  0.00  0.00    -0.238 NA
ATOM      9  H   ALA A   1     -22.658  24.335  -6.755  0.00  0.00    +0.142 HD
ENDBRANCH   6   8
ENDBRANCH   2   6
ENDBRANCH   1   3
BRANCH   1  10
ATOM     10  C   GLN A   2     -26.887  22.508  -9.554  0.00  0.00    +0.227 C 
ATOM     11  O   GLN A   2     -27.682  21.976 -10.328  0.00  0.00    -0.286 OA
ENDBRANCH   1  10
BRANCH   1  12
ATOM     12  CB  GLN A   2     -24.845  22.324 -10.968  0.00  0.00    +0.037 C 
BRANCH  12  13
ATOM     13  CG  GLN A   2     -23.654  22.988 -11.642  0.00  0.00    +0.087 C 
BRANCH  13  14
ATOM     14  CD  GLN A   2     -22.784  22.007 -12.402  0.00  0.00    +0.219 C 
ATOM     15  OE1 GLN A   2     -22.560  20.880 -11.957  0.00  0.00    -0.275 OA
ATOM     16  NE2 GLN A   2     -22.292  22.432 -13.558  0.00  0.00    -0.329 N 
ATOM     17 HE21 GLN A   2     -22.508  23.392 -13.894  0.00  0.00    +0.145 HD
ATOM     18 HE22 GLN A   2     -21.690  21.805 -14.129  0.00  0.00    +0.145 HD
ENDBRANCH  13  14
ENDBRANCH  12  13
ENDBRANCH   1  12
TORSDOF 7
REMARK  Name = ../refined-set-2016/4c1u/4c1u_pocket.pdb
REMARK  228 active torsions:
REMARK  status: ('A' for Active; 'I' for Inactive)
REMARK    1  A    between atoms: _1  and  _3
REMARK    2  A    between atoms: _3  and  _4
REMARK    3  A    between atoms: _3  and  _6
REMARK    4  A    between atoms: _6  and  _7
REMARK    5  A    between atoms: _12  and  _14
REMARK    6  A    between atoms: _14  and  _15
REMARK    7  A    between atoms: _14  and  _17
REMARK    8  A    between atoms: _17  and  _18
REMARK    9  A    between atoms: _23  and  _25
REMARK   10  A    between atoms: _25  and  _26
REMARK   11  A    between atoms: _29  and  _31
REMARK   12  A    between atoms: _31  and  _32
REMARK   13  A    between atoms: _31  and  _34
REMARK   14  A    between atoms: _34  and  _35
REMARK   15  A    between atoms: _37  and  _39
REMARK   16  A    between atoms: _39  and  _40
REMARK   17  A    between atoms: _43  and  _45
REMARK   18  A    between atoms: _45  and  _46
REMARK   19  A    between atoms: _48  and  _50
REMARK   20  A    between atoms: _50  and  _51
REMARK   21  A    between atoms: _50  and  _53
REMARK   22  A    between atoms: _53  and  _54
REMARK   23  A    between atoms: _54  and  _55
REMARK   24  A    between atoms: _55  and  _56
REMARK   25  A    between atoms: _65  and  _67
REMARK   26  A    between atoms: _67  and  _68
REMARK   27  A    between atoms: _67  and  _70
REMARK   28  A    between atoms: _70  and  _71
REMARK   29  A    between atoms: _81  and  _83
REMARK   30  A    between atoms: _83  and  _84
REMARK   31  A    between atoms: _83  and  _86
REMARK   32  A    between atoms: _86  and  _87
REMARK   33  A    between atoms: _90  and  _92
REMARK   34  A    between atoms: _92  and  _93
REMARK   35  A    between atoms: _92  and  _95
REMARK   36  A    between atoms: _95  and  _96
REMARK   37  A    between atoms: _96  and  _97
REMARK   38  A    between atoms: _102  and  _104
REMARK   39  A    between atoms: _104  and  _105
REMARK   40  A    between atoms: _104  and  _107
REMARK   41  A    between atoms: _107  and  _108
REMARK   42  A    between atoms: _113  and  _115
REMARK   43  A    between atoms: _115  and  _116
REMARK   44  A    between atoms: _115  and  _118
REMARK   45  A    between atoms: _118  and  _119
REMARK   46  A    between atoms: _119  and  _120
REMARK   47  A    between atoms: _123  and  _125
REMARK   48  A    between atoms: _125  and  _126
REMARK   49  A    between atoms: _125  and  _128
REMARK   50  A    between atoms: _128  and  _129
REMARK   51  A    between atoms: _135  and  _137
REMARK   52  A    between atoms: _137  and  _138
REMARK   53  A    between atoms: _141  and  _143
REMARK   54  A    between atoms: _143  and  _144
REMARK   55  A    between atoms: _143  and  _146
REMARK   56  A    between atoms: _146  and  _147
REMARK   57  A    between atoms: _147  and  _148
REMARK   58  A    between atoms: _150  and  _152
REMARK   59  A    between atoms: _152  and  _153
REMARK   60  A    between atoms: _152  and  _155
REMARK   61  A    between atoms: _155  and  _156
REMARK   62  A    between atoms: _158  and  _160
REMARK   63  A    between atoms: _160  and  _161
REMARK   64  A    between atoms: _160  and  _163
REMARK   65  A    between atoms: _163  and  _164
REMARK   66  A    between atoms: _167  and  _169
REMARK   67  A    between atoms: _169  and  _170
REMARK   68  A    between atoms: _169  and  _172
REMARK   69  A    between atoms: _172  and  _173
REMARK   70  A    between atoms: _173  and  _174
REMARK   71  A    between atoms: _174  and  _175
REMARK   72  A    between atoms: _175  and  _176
REMARK   73  A    between atoms: _180  and  _182
REMARK   74  A    between atoms: _182  and  _183
REMARK   75  A    between atoms: _182  and  _185
REMARK   76  A    between atoms: _188  and  _190
REMARK   77  A    between atoms: _190  and  _191
REMARK   78  A    between atoms: _190  and  _193
REMARK   79  A    between atoms: _193  and  _194
REMARK   80  A    between atoms: _196  and  _198
REMARK   81  A    between atoms: _198  and  _199
REMARK   82  A    between atoms: _198  and  _201
REMARK   83  A    between atoms: _204  and  _206
REMARK   84  A    between atoms: _206  and  _207
REMARK   85  A    between atoms: _206  and  _209
REMARK   86  A    between atoms: _209  and  _210
REMARK   87  A    between atoms: _210  and  _211
REMARK   88  A    between atoms: _214  and  _216
REMARK   89  A    between atoms: _216  and  _217
REMARK   90  A    between atoms: _216  and  _219
REMARK   91  A    between atoms: _219  and  _220
REMARK   92  A    between atoms: _223  and  _225
REMARK   93  A    between atoms: _225  and  _226
REMARK   94  A    between atoms: _229  and  _231
REMARK   95  A    between atoms: _231  and  _232
REMARK   96  A    between atoms: _231  and  _234
REMARK   97  A    between atoms: _234  and  _235
REMARK   98  A    between atoms: _246  and  _247
REMARK   99  A    between atoms: _252  and  _254
REMARK  100  A    between atoms: _254  and  _255
REMARK  101  A    between atoms: _258  and  _260
REMARK  102  A    between atoms: _260  and  _261
REMARK  103  A    between atoms: _260  and  _263
REMARK  104  A    between atoms: _263  and  _264
REMARK  105  A    between atoms: _269  and  _271
REMARK  106  A    between atoms: _271  and  _272
REMARK  107  A    between atoms: _271  and  _274
REMARK  108  A    between atoms: _274  and  _275
REMARK  109  A    between atoms: _280  and  _281
REMARK  110  A    between atoms: _283  and  _285
REMARK  111  A    between atoms: _285  and  _286
REMARK  112  A    between atoms: _289  and  _291
REMARK  113  A    between atoms: _291  and  _292
REMARK  114  A    between atoms: _291  and  _294
REMARK  115  A    between atoms: _294  and  _295
REMARK  116  A    between atoms: _295  and  _296
REMARK  117  A    between atoms: _301  and  _303
REMARK  118  A    between atoms: _303  and  _304
REMARK  119  A    between atoms: _303  and  _306
REMARK  120  A    between atoms: _306  and  _307
REMARK  121  A    between atoms: _307  and  _308
REMARK  122  A    between atoms: _310  and  _312
REMARK  123  A    between atoms: _312  and  _313
REMARK  124  A    between atoms: _315  and  _317
REMARK  125  A    between atoms: _317  and  _318
REMARK  126  A    between atoms: _321  and  _323
REMARK  127  A    between atoms: _323  and  _324
REMARK  128  A    between atoms: _323  and  _326
REMARK  129  A    between atoms: _326  and  _327
REMARK  130  A    between atoms: _337  and  _339
REMARK  131  A    between atoms: _339  and  _340
REMARK  132  A    between atoms: _339  and  _342
REMARK  133  A    between atoms: _342  and  _343
REMARK  134  A    between atoms: _343  and  _344
REMARK  135  A    between atoms: _347  and  _349
REMARK  136  A    between atoms: _349  and  _350
REMARK  137  A    between atoms: _352  and  _354
REMARK  138  A    between atoms: _354  and  _355
REMARK  139  A    between atoms: _354  and  _357
REMARK  140  A    between atoms: _360  and  _362
REMARK  141  A    between atoms: _362  and  _363
REMARK  142  A    between atoms: _362  and  _365
REMARK  143  A    between atoms: _365  and  _366
REMARK  144  A    between atoms: _366  and  _367
REMARK  145  A    between atoms: _369  and  _371
REMARK  146  A    between atoms: _371  and  _372
REMARK  147  A    between atoms: _374  and  _376
REMARK  148  A    between atoms: _376  and  _377
REMARK  149  A    between atoms: _379  and  _381
REMARK  150  A    between atoms: _381  and  _382
REMARK  151  A    between atoms: _381  and  _384
REMARK  152  A    between atoms: _387  and  _389
REMARK  153  A    between atoms: _389  and  _390
REMARK  154  A    between atoms: _389  and  _392
REMARK  155  A    between atoms: _392  and  _393
REMARK  156  A    between atoms: _396  and  _398
REMARK  157  A    between atoms: _398  and  _399
REMARK  158  A    between atoms: _398  and  _401
REMARK  159  A    between atoms: _401  and  _402
REMARK  160  A    between atoms: _407  and  _408
REMARK  161  A    between atoms: _410  and  _412
REMARK  162  A    between atoms: _412  and  _413
REMARK  163  A    between atoms: _412  and  _415
REMARK  164  A    between atoms: _415  and  _416
REMARK  165  A    between atoms: _422  and  _424
REMARK  166  A    between atoms: _424  and  _425
REMARK  167  A    between atoms: _424  and  _427
REMARK  168  A    between atoms: _427  and  _428
REMARK  169  A    between atoms: _428  and  _429
REMARK  170  A    between atoms: _434  and  _436
REMARK  171  A    between atoms: _436  and  _437
REMARK  172  A    between atoms: _436  and  _439
REMARK  173  A    between atoms: _439  and  _440
REMARK  174  A    between atoms: _445  and  _446
REMARK  175  A    between atoms: _448  and  _450
REMARK  176  A    between atoms: _450  and  _451
REMARK  177  A    between atoms: _454  and  _456
REMARK  178  A    between atoms: _456  and  _457
REMARK  179  A    between atoms: _456  and  _459
REMARK  180  A    between atoms: _459  and  _460
REMARK  181  A    between atoms: _466  and  _468
REMARK  182  A    between atoms: _468  and  _469
REMARK  183  A    between atoms: _468  and  _471
REMARK  184  A    between atoms: _471  and  _472
REMARK  185  A    between atoms: _474  and  _476
REMARK  186  A    between atoms: _476  and  _477
REMARK  187  A    between atoms: _476  and  _479
REMARK  188  A    between atoms: _479  and  _480
REMARK  189  A    between atoms: _483  and  _485
REMARK  190  A    between atoms: _485  and  _486
REMARK  191  A    between atoms: _485  and  _488
REMARK  192  A    between atoms: _488  and  _489
REMARK  193  A    between atoms: _493  and  _494
REMARK  194  A    between atoms: _499  and  _501
REMARK  195  A    between atoms: _501  and  _502
REMARK  196  A    between atoms: _505  and  _507
REMARK  197  A    between atoms: _507  and  _508
REMARK  198  A    between atoms: _507  and  _510
REMARK  199  A    between atoms: _510  and  _511
REMARK  200  A    between atoms: _514  and  _516
REMARK  201  A    between atoms: _516  and  _517
REMARK  202  A    between atoms: _516  and  _519
REMARK  203  A    between atoms: _519  and  _520
REMARK  204  A    between atoms: _530  and  _532
REMARK  205  A    between atoms: _532  and  _533
REMARK  206  A    between atoms: _532  and  _535
REMARK  207  A    between atoms: _535  and  _536
REMARK  208  A    between atoms: _536  and  _537
REMARK  209  A    between atoms: _539  and  _541
REMARK  210  A    between atoms: _541  and  _542
REMARK  211  A    between atoms: _541  and  _544
REMARK  212  A    between atoms: _544  and  _545
REMARK  213  A    between atoms: _548  and  _550
REMARK  214  A    between atoms: _550  and  _551
REMARK  215  A    between atoms: _550  and  _553
REMARK  216  A    between atoms: _553  and  _554
REMARK  217  A    between atoms: _557  and  _559
REMARK  218  A    between atoms: _559  and  _560
REMARK  219  A    between atoms: _563  and  _565
REMARK  220  A    between atoms: _565  and  _566
REMARK  221  A    between atoms: _568  and  _570
REMARK  222  A    between atoms: _570  and  _571
REMARK  223  A    between atoms: _570  and  _573
REMARK  224  A    between atoms: _573  and  _574
REMARK  225  A    between atoms: _579  and  _581
REMARK  226  A    between atoms: _581  and  _582
REMARK  227  A    between atoms: _581  and  _584
REMARK  228  A    between atoms: _584  and  _585
REMARK                            x       y       z     vdW  Elec       q    Type
REMARK                         _______ _______ _______ _____ _____    ______ ____
ROOT
ATOM      1  CA  TRP A   4     -21.234  23.439 -19.941  0.00  0.00    +0.153 C 
ENDROOT
BRANCH   1   2
ATOM      2  C   TRP A   4     -22.488  24.204 -19.521  0.00  0.00    +0.241 C 
ATOM      3  N   GLU A   5     -22.343  25.513 -19.329  0.00  0.00    -0.298 N 
ATOM      4  H   GLU A   5     -21.457  25.968 -19.629  0.00  0.00    +0.150 HD
ATOM      5  O   TRP A   4     -23.559  23.622 -19.371  0.00  0.00    -0.273 OA
BRANCH   3   6
ATOM      6  CA  GLU A   5     -23.382  26.335 -18.712  0.00  0.00    +0.137 C 
BRANCH   6   7
ATOM      7  C   GLU A   5     -24.769  26.235 -19.367  0.00  0.00    +0.227 C 
ATOM      8  O   GLU A   5     -25.757  26.034 -18.666  0.00  0.00    -0.286 OA
ENDBRANCH   6   7
BRANCH   6   9
ATOM      9  CB  GLU A   5     -22.920  27.798 -18.646  0.00  0.00    +0.039 C 
BRANCH   9  10
ATOM     10  CG  GLU A   5     -23.903  28.762 -17.992  0.00  0.00    +0.116 C 
BRANCH  10  11
ATOM     11  CD  GLU A   5     -23.913  28.664 -16.479  0.00  0.00    +0.365 C 
ATOM     12  OE2 GLU A   5     -24.237  29.679 -15.827  0.00  0.00    -0.246 OA
ATOM     13  OE1 GLU A   5     -23.596  27.581 -15.941  0.00  0.00    -0.246 OA
ENDBRANCH  10  11
ENDBRANCH   9  10
ENDBRANCH   6   9
ENDBRANCH   3   6
ENDBRANCH   1   2
BRANCH   1  15
ATOM     14  C   ALA A   3     -20.114  25.138 -21.271  0.00  0.00    +0.241 C 
ATOM     15  N   TRP A   4     -20.146  24.376 -20.185  0.00  0.00    -0.297 N 
ATOM     16  H   TRP A   4     -19.375  24.450 -19.491  0.00  0.00    +0.150 HD
ATOM     17  O   ALA A   3     -20.851  24.949 -22.238  0.00  0.00    -0.273 OA
BRANCH  14  18
ATOM     18  CA  ALA A   3     -19.113  26.294 -21.273  0.00  0.00    +0.149 C 
ATOM     19  CB  ALA A   3     -18.376  26.357 -22.605  0.00  0.00    +0.031 C 
BRANCH  18  22
ATOM     20  C   GLY A   2     -18.492  26.677 -18.941  0.00  0.00    +0.243 C 
ATOM     21  O   GLY A   2     -19.651  26.936 -18.617  0.00  0.00    -0.273 OA
ATOM     22  N   ALA A   3     -18.157  26.274 -20.165  0.00  0.00    -0.297 N 
ATOM     23  H   ALA A   3     -17.189  25.936 -20.339  0.00  0.00    +0.150 HD
BRANCH  20  24
ATOM     24  CA  GLY A   2     -17.364  26.785 -17.927  0.00  0.00    +0.176 C 
BRANCH  24  26
ATOM     25  C   MET A   1     -17.989  28.766 -16.657  0.00  0.00    +0.238 C 
ATOM     26  N   GLY A   2     -17.789  27.452 -16.706  0.00  0.00    -0.296 N 
ATOM     27  H   GLY A   2     -17.941  26.885 -15.847  0.00  0.00    +0.150 HD
ATOM     28  O   MET A   1     -17.742  29.514 -17.603  0.00  0.00    -0.274 OA
BRANCH  25  29
ATOM     29  CA  MET A   1     -18.544  29.325 -15.344  0.00  0.00    +0.146 C 
BRANCH  29  30
ATOM     30  N   MET A   1     -18.309  30.761 -15.240  0.00  0.00    -0.238 NA
ATOM     31  H   MET A   1     -18.106  31.308 -16.101  0.00  0.00    +0.142 HD
ENDBRANCH  29  30
BRANCH  29  32
ATOM     32  CB  MET A   1     -20.058  29.078 -15.265  0.00  0.00    +0.038 C 
BRANCH  32  33
ATOM     33  CG  MET A   1     -20.517  27.720 -14.744  0.00  0.00    +0.060 C 
BRANCH  33  34
ATOM     34  SD  MET A   1     -19.527  26.958 -13.440  0.00  0.00    -0.139 S 
ATOM     35  CE  MET A   1     -19.938  27.952 -12.010  0.00  0.00    +0.069 C 
ENDBRANCH  33  34
ENDBRANCH  32  33
ENDBRANCH  29  32
ENDBRANCH  25  29
ENDBRANCH  24  26
ENDBRANCH  20  24
ENDBRANCH  18  22
ENDBRANCH  14  18
ENDBRANCH   1  15
BRANCH   1  36
ATOM     36  CB  TRP A   4     -20.852  22.469 -18.826  0.00  0.00    +0.057 C 
BRANCH  36  37
ATOM     37  CG  TRP A   4     -20.384  23.168 -17.583  0.00  0.00    -0.002 A 
ATOM     38  CD1 TRP A   4     -21.160  23.786 -16.645  0.00  0.00    +0.068 A 
ATOM     39  NE1 TRP A   4     -20.372  24.322 -15.656  0.00  0.00    -0.352 N 
ATOM     40  HE1 TRP A   4     -20.716  24.845 -14.825  0.00  0.00    +0.166 HD
ATOM     41  CE2 TRP A   4     -19.059  24.056 -15.942  0.00  0.00    +0.056 A 
ATOM     42  CZ2 TRP A   4     -17.902  24.389 -15.242  0.00  0.00    +0.017 A 
ATOM     43  CH2 TRP A   4     -16.708  23.986 -15.772  0.00  0.00    +0.001 A 
ATOM     44  CZ3 TRP A   4     -16.645  23.265 -16.970  0.00  0.00    +0.000 A 
ATOM     45  CE3 TRP A   4     -17.791  22.936 -17.668  0.00  0.00    +0.001 A 
ATOM     46  CD2 TRP A   4     -19.028  23.333 -17.150  0.00  0.00    +0.013 A 
ENDBRANCH  36  37
ENDBRANCH   1  36
TORSDOF 18
REMARK  Name = ../refined-set-2016/4c1u/4c1u_pocket.pdb
REMARK  228 active torsions:
REMARK  status: ('A' for Active; 'I' for Inactive)
REMARK    1  A    between atoms: _1  and  _3
REMARK    2  A    between atoms: _3  and  _4
REMARK    3  A    between atoms: _3  and  _6
REMARK    4  A    between atoms: _6  and  _7
REMARK    5  A    between atoms: _12  and  _14
REMARK    6  A    between atoms: _14  and  _15
REMARK    7  A    between atoms: _14  and  _17
REMARK    8  A    between atoms: _17  and  _18
REMARK    9  A    between atoms: _23  and  _25
REMARK   10  A    between atoms: _25  and  _26
REMARK   11  A    between atoms: _29  and  _31
REMARK   12  A    between atoms: _31  and  _32
REMARK   13  A    between atoms: _31  and  _34
REMARK   14  A    between atoms: _34  and  _35
REMARK   15  A    between atoms: _37  and  _39
REMARK   16  A    between atoms: _39  and  _40
REMARK   17  A    between atoms: _43  and  _45
REMARK   18  A    between atoms: _45  and  _46
REMARK   19  A    between atoms: _48  and  _50
REMARK   20  A    between atoms: _50  and  _51
REMARK   21  A    between atoms: _50  and  _53
REMARK   22  A    between atoms: _53  and  _54
REMARK   23  A    between atoms: _54  and  _55
REMARK   24  A    between atoms: _55  and  _56
REMARK   25  A    between atoms: _65  and  _67
REMARK   26  A    between atoms: _67  and  _68
REMARK   27  A    between atoms: _67  and  _70
REMARK   28  A    between atoms: _70  and  _71
REMARK   29  A    between atoms: _81  and  _83
REMARK   30  A    between atoms: _83  and  _84
REMARK   31  A    between atoms: _83  and  _86
REMARK   32  A    between atoms: _86  and  _87
REMARK   33  A    between atoms: _90  and  _92
REMARK   34  A    between atoms: _92  and  _93
REMARK   35  A    between atoms: _92  and  _95
REMARK   36  A    between atoms: _95  and  _96
REMARK   37  A    between atoms: _96  and  _97
REMARK   38  A    between atoms: _102  and  _104
REMARK   39  A    between atoms: _104  and  _105
REMARK   40  A    between atoms: _104  and  _107
REMARK   41  A    between atoms: _107  and  _108
REMARK   42  A    between atoms: _113  and  _115
REMARK   43  A    between atoms: _115  and  _116
REMARK   44  A    between atoms: _115  and  _118
REMARK   45  A    between atoms: _118  and  _119
REMARK   46  A    between atoms: _119  and  _120
REMARK   47  A    between atoms: _123  and  _125
REMARK   48  A    between atoms: _125  and  _126
REMARK   49  A    between atoms: _125  and  _128
REMARK   50  A    between atoms: _128  and  _129
REMARK   51  A    between atoms: _135  and  _137
REMARK   52  A    between atoms: _137  and  _138
REMARK   53  A    between atoms: _141  and  _143
REMARK   54  A    between atoms: _143  and  _144
REMARK   55  A    between atoms: _143  and  _146
REMARK   56  A    between atoms: _146  and  _147
REMARK   57  A    between atoms: _147  and  _148
REMARK   58  A    between atoms: _150  and  _152
REMARK   59  A    between atoms: _152  and  _153
REMARK   60  A    between atoms: _152  and  _155
REMARK   61  A    between atoms: _155  and  _156
REMARK   62  A    between atoms: _158  and  _160
REMARK   63  A    between atoms: _160  and  _161
REMARK   64  A    between atoms: _160  and  _163
REMARK   65  A    between atoms: _163  and  _164
REMARK   66  A    between atoms: _167  and  _169
REMARK   67  A    between atoms: _169  and  _170
REMARK   68  A    between atoms: _169  and  _172
REMARK   69  A    between atoms: _172  and  _173
REMARK   70  A    between atoms: _173  and  _174
REMARK   71  A    between atoms: _174  and  _175
REMARK   72  A    between atoms: _175  and  _176
REMARK   73  A    between atoms: _180  and  _182
REMARK   74  A    between atoms: _182  and  _183
REMARK   75  A    between atoms: _182  and  _185
REMARK   76  A    between atoms: _188  and  _190
REMARK   77  A    between atoms: _190  and  _191
REMARK   78  A    between atoms: _190  and  _193
REMARK   79  A    between atoms: _193  and  _194
REMARK   80  A    between atoms: _196  and  _198
REMARK   81  A    between atoms: _198  and  _199
REMARK   82  A    between atoms: _198  and  _201
REMARK   83  A    between atoms: _204  and  _206
REMARK   84  A    between atoms: _206  and  _207
REMARK   85  A    between atoms: _206  and  _209
REMARK   86  A    between atoms: _209  and  _210
REMARK   87  A    between atoms: _210  and  _211
REMARK   88  A    between atoms: _214  and  _216
REMARK   89  A    between atoms: _216  and  _217
REMARK   90  A    between atoms: _216  and  _219
REMARK   91  A    between atoms: _219  and  _220
REMARK   92  A    between atoms: _223  and  _225
REMARK   93  A    between atoms: _225  and  _226
REMARK   94  A    between atoms: _229  and  _231
REMARK   95  A    between atoms: _231  and  _232
REMARK   96  A    between atoms: _231  and  _234
REMARK   97  A    between atoms: _234  and  _235
REMARK   98  A    between atoms: _246  and  _247
REMARK   99  A    between atoms: _252  and  _254
REMARK  100  A    between atoms: _254  and  _255
REMARK  101  A    between atoms: _258  and  _260
REMARK  102  A    between atoms: _260  and  _261
REMARK  103  A    between atoms: _260  and  _263
REMARK  104  A    between atoms: _263  and  _264
REMARK  105  A    between atoms: _269  and  _271
REMARK  106  A    between atoms: _271  and  _272
REMARK  107  A    between atoms: _271  and  _274
REMARK  108  A    between atoms: _274  and  _275
REMARK  109  A    between atoms: _280  and  _281
REMARK  110  A    between atoms: _283  and  _285
REMARK  111  A    between atoms: _285  and  _286
REMARK  112  A    between atoms: _289  and  _291
REMARK  113  A    between atoms: _291  and  _292
REMARK  114  A    between atoms: _291  and  _294
REMARK  115  A    between atoms: _294  and  _295
REMARK  116  A    between atoms: _295  and  _296
REMARK  117  A    between atoms: _301  and  _303
REMARK  118  A    between atoms: _303  and  _304
REMARK  119  A    between atoms: _303  and  _306
REMARK  120  A    between atoms: _306  and  _307
REMARK  121  A    between atoms: _307  and  _308
REMARK  122  A    between atoms: _310  and  _312
REMARK  123  A    between atoms: _312  and  _313
REMARK  124  A    between atoms: _315  and  _317
REMARK  125  A    between atoms: _317  and  _318
REMARK  126  A    between atoms: _321  and  _323
REMARK  127  A    between atoms: _323  and  _324
REMARK  128  A    between atoms: _323  and  _326
REMARK  129  A    between atoms: _326  and  _327
REMARK  130  A    between atoms: _337  and  _339
REMARK  131  A    between atoms: _339  and  _340
REMARK  132  A    between atoms: _339  and  _342
REMARK  133  A    between atoms: _342  and  _343
REMARK  134  A    between atoms: _343  and  _344
REMARK  135  A    between atoms: _347  and  _349
REMARK  136  A    between atoms: _349  and  _350
REMARK  137  A    between atoms: _352  and  _354
REMARK  138  A    between atoms: _354  and  _355
REMARK  139  A    between atoms: _354  and  _357
REMARK  140  A    between atoms: _360  and  _362
REMARK  141  A    between atoms: _362  and  _363
REMARK  142  A    between atoms: _362  and  _365
REMARK  143  A    between atoms: _365  and  _366
REMARK  144  A    between atoms: _366  and  _367
REMARK  145  A    between atoms: _369  and  _371
REMARK  146  A    between atoms: _371  and  _372
REMARK  147  A    between atoms: _374  and  _376
REMARK  148  A    between atoms: _376  and  _377
REMARK  149  A    between atoms: _379  and  _381
REMARK  150  A    between atoms: _381  and  _382
REMARK  151  A    between atoms: _381  and  _384
REMARK  152  A    between atoms: _387  and  _389
REMARK  153  A    between atoms: _389  and  _390
REMARK  154  A    between atoms: _389  and  _392
REMARK  155  A    between atoms: _392  and  _393
REMARK  156  A    between atoms: _396  and  _398
REMARK  157  A    between atoms: _398  and  _399
REMARK  158  A    between atoms: _398  and  _401
REMARK  159  A    between atoms: _401  and  _402
REMARK  160  A    between atoms: _407  and  _408
REMARK  161  A    between atoms: _410  and  _412
REMARK  162  A    between atoms: _412  and  _413
REMARK  163  A    between atoms: _412  and  _415
REMARK  164  A    between atoms: _415  and  _416
REMARK  165  A    between atoms: _422  and  _424
REMARK  166  A    between atoms: _424  and  _425
REMARK  167  A    between atoms: _424  and  _427
REMARK  168  A    between atoms: _427  and  _428
REMARK  169  A    between atoms: _428  and  _429
REMARK  170  A    between atoms: _434  and  _436
REMARK  171  A    between atoms: _436  and  _437
REMARK  172  A    between atoms: _436  and  _439
REMARK  173  A    between atoms: _439  and  _440
REMARK  174  A    between atoms: _445  and  _446
REMARK  175  A    between atoms: _448  and  _450
REMARK  176  A    between atoms: _450  and  _451
REMARK  177  A    between atoms: _454  and  _456
REMARK  178  A    between atoms: _456  and  _457
REMARK  179  A    between atoms: _456  and  _459
REMARK  180  A    between atoms: _459  and  _460
REMARK  181  A    between atoms: _466  and  _468
REMARK  182  A    between atoms: _468  and  _469
REMARK  183  A    between atoms: _468  and  _471
REMARK  184  A    between atoms: _471  and  _472
REMARK  185  A    between atoms: _474  and  _476
REMARK  186  A    between atoms: _476  and  _477
REMARK  187  A    between atoms: _476  and  _479
REMARK  188  A    between atoms: _479  and  _480
REMARK  189  A    between atoms: _483  and  _485
REMARK  190  A    between atoms: _485  and  _486
REMARK  191  A    between atoms: _485  and  _488
REMARK  192  A    between atoms: _488  and  _489
REMARK  193  A    between atoms: _493  and  _494
REMARK  194  A    between atoms: _499  and  _501
REMARK  195  A    between atoms: _501  and  _502
REMARK  196  A    between atoms: _505  and  _507
REMARK  197  A    between atoms: _507  and  _508
REMARK  198  A    between atoms: _507  and  _510
REMARK  199  A    between atoms: _510  and  _511
REMARK  200  A    between atoms: _514  and  _516
REMARK  201  A    between atoms: _516  and  _517
REMARK  202  A    between atoms: _516  and  _519
REMARK  203  A    between atoms: _519  and  _520
REMARK  204  A    between atoms: _530  and  _532
REMARK  205  A    between atoms: _532  and  _533
REMARK  206  A    between atoms: _532  and  _535
REMARK  207  A    between atoms: _535  and  _536
REMARK  208  A    between atoms: _536  and  _537
REMARK  209  A    between atoms: _539  and  _541
REMARK  210  A    between atoms: _541  and  _542
REMARK  211  A    between atoms: _541  and  _544
REMARK  212  A    between atoms: _544  and  _545
REMARK  213  A    between atoms: _548  and  _550
REMARK  214  A    between atoms: _550  and  _551
REMARK  215  A    between atoms: _550  and  _553
REMARK  216  A    between atoms: _553  and  _554
REMARK  217  A    between atoms: _557  and  _559
REMARK  218  A    between atoms: _559  and  _560
REMARK  219  A    between atoms: _563  and  _565
REMARK  220  A    between atoms: _565  and  _566
REMARK  221  A    between atoms: _568  and  _570
REMARK  222  A    between atoms: _570  and  _571
REMARK  223  A    between atoms: _570  and  _573
REMARK  224  A    between atoms: _573  and  _574
REMARK  225  A    between atoms: _579  and  _581
REMARK  226  A    between atoms: _581  and  _582
REMARK  227  A    between atoms: _581  and  _584
REMARK  228  A    between atoms: _584  and  _585
REMARK                            x       y       z     vdW  Elec       q    Type
REMARK                         _______ _______ _______ _____ _____    ______ ____
ROOT
ATOM      1  C   GLY A   1     -27.520  22.566 -19.266  0.00  0.00    +0.240 C 
ATOM      2  N   VAL A   2     -26.824  23.248 -18.366  0.00  0.00    -0.298 N 
ATOM      3  H   VAL A   2     -26.005  23.810 -18.674  0.00  0.00    +0.150 HD
ATOM      4  O   GLY A   1     -28.456  21.828 -18.968  0.00  0.00    -0.274 OA
ENDROOT
BRANCH   1   5
ATOM      5  CA  GLY A   1     -27.099  22.736 -20.711  0.00  0.00    +0.169 C 
BRANCH   5   6
ATOM      6  N   GLY A   1     -26.385  23.975 -20.959  0.00  0.00    -0.236 NA
ATOM      7  H   GLY A   1     -25.351  23.951 -21.068  0.00  0.00    +0.142 HD
ENDBRANCH   5   6
ENDBRANCH   1   5
BRANCH   2   8
ATOM      8  CA  VAL A   2     -27.185  23.225 -16.957  0.00  0.00    +0.137 C 
BRANCH   8   9
ATOM      9  CB  VAL A   2     -25.996  23.638 -16.066  0.00  0.00    +0.026 C 
ATOM     10  CG2 VAL A   2     -26.413  23.720 -14.604  0.00  0.00    +0.002 C 
ATOM     11  CG1 VAL A   2     -24.851  22.652 -16.235  0.00  0.00    +0.002 C 
ENDBRANCH   8   9
BRANCH   8  12
ATOM     12  C   VAL A   2     -28.359  24.170 -16.737  0.00  0.00    +0.227 C 
ATOM     13  O   VAL A   2     -29.304  23.848 -16.018  0.00  0.00    -0.286 OA
ENDBRANCH   8  12
ENDBRANCH   2   8
TORSDOF 5
REMARK  Name = ../refined-set-2016/4c1u/4c1u_pocket.pdb
REMARK  228 active torsions:
REMARK  status: ('A' for Active; 'I' for Inactive)
REMARK    1  A    between atoms: _1  and  _3
REMARK    2  A    between atoms: _3  and  _4
REMARK    3  A    between atoms: _3  and  _6
REMARK    4  A    between atoms: _6  and  _7
REMARK    5  A    between atoms: _12  and  _14
REMARK    6  A    between atoms: _14  and  _15
REMARK    7  A    between atoms: _14  and  _17
REMARK    8  A    between atoms: _17  and  _18
REMARK    9  A    between atoms: _23  and  _25
REMARK   10  A    between atoms: _25  and  _26
REMARK   11  A    between atoms: _29  and  _31
REMARK   12  A    between atoms: _31  and  _32
REMARK   13  A    between atoms: _31  and  _34
REMARK   14  A    between atoms: _34  and  _35
REMARK   15  A    between atoms: _37  and  _39
REMARK   16  A    between atoms: _39  and  _40
REMARK   17  A    between atoms: _43  and  _45
REMARK   18  A    between atoms: _45  and  _46
REMARK   19  A    between atoms: _48  and  _50
REMARK   20  A    between atoms: _50  and  _51
REMARK   21  A    between atoms: _50  and  _53
REMARK   22  A    between atoms: _53  and  _54
REMARK   23  A    between atoms: _54  and  _55
REMARK   24  A    between atoms: _55  and  _56
REMARK   25  A    between atoms: _65  and  _67
REMARK   26  A    between atoms: _67  and  _68
REMARK   27  A    between atoms: _67  and  _70
REMARK   28  A    between atoms: _70  and  _71
REMARK   29  A    between atoms: _81  and  _83
REMARK   30  A    between atoms: _83  and  _84
REMARK   31  A    between atoms: _83  and  _86
REMARK   32  A    between atoms: _86  and  _87
REMARK   33  A    between atoms: _90  and  _92
REMARK   34  A    between atoms: _92  and  _93
REMARK   35  A    between atoms: _92  and  _95
REMARK   36  A    between atoms: _95  and  _96
REMARK   37  A    between atoms: _96  and  _97
REMARK   38  A    between atoms: _102  and  _104
REMARK   39  A    between atoms: _104  and  _105
REMARK   40  A    between atoms: _104  and  _107
REMARK   41  A    between atoms: _107  and  _108
REMARK   42  A    between atoms: _113  and  _115
REMARK   43  A    between atoms: _115  and  _116
REMARK   44  A    between atoms: _115  and  _118
REMARK   45  A    between atoms: _118  and  _119
REMARK   46  A    between atoms: _119  and  _120
REMARK   47  A    between atoms: _123  and  _125
REMARK   48  A    between atoms: _125  and  _126
REMARK   49  A    between atoms: _125  and  _128
REMARK   50  A    between atoms: _128  and  _129
REMARK   51  A    between atoms: _135  and  _137
REMARK   52  A    between atoms: _137  and  _138
REMARK   53  A    between atoms: _141  and  _143
REMARK   54  A    between atoms: _143  and  _144
REMARK   55  A    between atoms: _143  and  _146
REMARK   56  A    between atoms: _146  and  _147
REMARK   57  A    between atoms: _147  and  _148
REMARK   58  A    between atoms: _150  and  _152
REMARK   59  A    between atoms: _152  and  _153
REMARK   60  A    between atoms: _152  and  _155
REMARK   61  A    between atoms: _155  and  _156
REMARK   62  A    between atoms: _158  and  _160
REMARK   63  A    between atoms: _160  and  _161
REMARK   64  A    between atoms: _160  and  _163
REMARK   65  A    between atoms: _163  and  _164
REMARK   66  A    between atoms: _167  and  _169
REMARK   67  A    between atoms: _169  and  _170
REMARK   68  A    between atoms: _169  and  _172
REMARK   69  A    between atoms: _172  and  _173
REMARK   70  A    between atoms: _173  and  _174
REMARK   71  A    between atoms: _174  and  _175
REMARK   72  A    between atoms: _175  and  _176
REMARK   73  A    between atoms: _180  and  _182
REMARK   74  A    between atoms: _182  and  _183
REMARK   75  A    between atoms: _182  and  _185
REMARK   76  A    between atoms: _188  and  _190
REMARK   77  A    between atoms: _190  and  _191
REMARK   78  A    between atoms: _190  and  _193
REMARK   79  A    between atoms: _193  and  _194
REMARK   80  A    between atoms: _196  and  _198
REMARK   81  A    between atoms: _198  and  _199
REMARK   82  A    between atoms: _198  and  _201
REMARK   83  A    between atoms: _204  and  _206
REMARK   84  A    between atoms: _206  and  _207
REMARK   85  A    between atoms: _206  and  _209
REMARK   86  A    between atoms: _209  and  _210
REMARK   87  A    between atoms: _210  and  _211
REMARK   88  A    between atoms: _214  and  _216
REMARK   89  A    between atoms: _216  and  _217
REMARK   90  A    between atoms: _216  and  _219
REMARK   91  A    between atoms: _219  and  _220
REMARK   92  A    between atoms: _223  and  _225
REMARK   93  A    between atoms: _225  and  _226
REMARK   94  A    between atoms: _229  and  _231
REMARK   95  A    between atoms: _231  and  _232
REMARK   96  A    between atoms: _231  and  _234
REMARK   97  A    between atoms: _234  and  _235
REMARK   98  A    between atoms: _246  and  _247
REMARK   99  A    between atoms: _252  and  _254
REMARK  100  A    between atoms: _254  and  _255
REMARK  101  A    between atoms: _258  and  _260
REMARK  102  A    between atoms: _260  and  _261
REMARK  103  A    between atoms: _260  and  _263
REMARK  104  A    between atoms: _263  and  _264
REMARK  105  A    between atoms: _269  and  _271
REMARK  106  A    between atoms: _271  and  _272
REMARK  107  A    between atoms: _271  and  _274
REMARK  108  A    between atoms: _274  and  _275
REMARK  109  A    between atoms: _280  and  _281
REMARK  110  A    between atoms: _283  and  _285
REMARK  111  A    between atoms: _285  and  _286
REMARK  112  A    between atoms: _289  and  _291
REMARK  113  A    between atoms: _291  and  _292
REMARK  114  A    between atoms: _291  and  _294
REMARK  115  A    between atoms: _294  and  _295
REMARK  116  A    between atoms: _295  and  _296
REMARK  117  A    between atoms: _301  and  _303
REMARK  118  A    between atoms: _303  and  _304
REMARK  119  A    between atoms: _303  and  _306
REMARK  120  A    between atoms: _306  and  _307
REMARK  121  A    between atoms: _307  and  _308
REMARK  122  A    between atoms: _310  and  _312
REMARK  123  A    between atoms: _312  and  _313
REMARK  124  A    between atoms: _315  and  _317
REMARK  125  A    between atoms: _317  and  _318
REMARK  126  A    between atoms: _321  and  _323
REMARK  127  A    between atoms: _323  and  _324
REMARK  128  A    between atoms: _323  and  _326
REMARK  129  A    between atoms: _326  and  _327
REMARK  130  A    between atoms: _337  and  _339
REMARK  131  A    between atoms: _339  and  _340
REMARK  132  A    between atoms: _339  and  _342
REMARK  133  A    between atoms: _342  and  _343
REMARK  134  A    between atoms: _343  and  _344
REMARK  135  A    between atoms: _347  and  _349
REMARK  136  A    between atoms: _349  and  _350
REMARK  137  A    between atoms: _352  and  _354
REMARK  138  A    between atoms: _354  and  _355
REMARK  139  A    between atoms: _354  and  _357
REMARK  140  A    between atoms: _360  and  _362
REMARK  141  A    between atoms: _362  and  _363
REMARK  142  A    between atoms: _362  and  _365
REMARK  143  A    between atoms: _365  and  _366
REMARK  144  A    between atoms: _366  and  _367
REMARK  145  A    between atoms: _369  and  _371
REMARK  146  A    between atoms: _371  and  _372
REMARK  147  A    between atoms: _374  and  _376
REMARK  148  A    between atoms: _376  and  _377
REMARK  149  A    between atoms: _379  and  _381
REMARK  150  A    between atoms: _381  and  _382
REMARK  151  A    between atoms: _381  and  _384
REMARK  152  A    between atoms: _387  and  _389
REMARK  153  A    between atoms: _389  and  _390
REMARK  154  A    between atoms: _389  and  _392
REMARK  155  A    between atoms: _392  and  _393
REMARK  156  A    between atoms: _396  and  _398
REMARK  157  A    between atoms: _398  and  _399
REMARK  158  A    between atoms: _398  and  _401
REMARK  159  A    between atoms: _401  and  _402
REMARK  160  A    between atoms: _407  and  _408
REMARK  161  A    between atoms: _410  and  _412
REMARK  162  A    between atoms: _412  and  _413
REMARK  163  A    between atoms: _412  and  _415
REMARK  164  A    between atoms: _415  and  _416
REMARK  165  A    between atoms: _422  and  _424
REMARK  166  A    between atoms: _424  and  _425
REMARK  167  A    between atoms: _424  and  _427
REMARK  168  A    between atoms: _427  and  _428
REMARK  169  A    between atoms: _428  and  _429
REMARK  170  A    between atoms: _434  and  _436
REMARK  171  A    between atoms: _436  and  _437
REMARK  172  A    between atoms: _436  and  _439
REMARK  173  A    between atoms: _439  and  _440
REMARK  174  A    between atoms: _445  and  _446
REMARK  175  A    between atoms: _448  and  _450
REMARK  176  A    between atoms: _450  and  _451
REMARK  177  A    between atoms: _454  and  _456
REMARK  178  A    between atoms: _456  and  _457
REMARK  179  A    between atoms: _456  and  _459
REMARK  180  A    between atoms: _459  and  _460
REMARK  181  A    between atoms: _466  and  _468
REMARK  182  A    between atoms: _468  and  _469
REMARK  183  A    between atoms: _468  and  _471
REMARK  184  A    between atoms: _471  and  _472
REMARK  185  A    between atoms: _474  and  _476
REMARK  186  A    between atoms: _476  and  _477
REMARK  187  A    between atoms: _476  and  _479
REMARK  188  A    between atoms: _479  and  _480
REMARK  189  A    between atoms: _483  and  _485
REMARK  190  A    between atoms: _485  and  _486
REMARK  191  A    between atoms: _485  and  _488
REMARK  192  A    between atoms: _488  and  _489
REMARK  193  A    between atoms: _493  and  _494
REMARK  194  A    between atoms: _499  and  _501
REMARK  195  A    between atoms: _501  and  _502
REMARK  196  A    between atoms: _505  and  _507
REMARK  197  A    between atoms: _507  and  _508
REMARK  198  A    between atoms: _507  and  _510
REMARK  199  A    between atoms: _510  and  _511
REMARK  200  A    between atoms: _514  and  _516
REMARK  201  A    between atoms: _516  and  _517
REMARK  202  A    between atoms: _516  and  _519
REMARK  203  A    between atoms: _519  and  _520
REMARK  204  A    between atoms: _530  and  _532
REMARK  205  A    between atoms: _532  and  _533
REMARK  206  A    between atoms: _532  and  _535
REMARK  207  A    between atoms: _535  and  _536
REMARK  208  A    between atoms: _536  and  _537
REMARK  209  A    between atoms: _539  and  _541
REMARK  210  A    between atoms: _541  and  _542
REMARK  211  A    between atoms: _541  and  _544
REMARK  212  A    between atoms: _544  and  _545
REMARK  213  A    between atoms: _548  and  _550
REMARK  214  A    between atoms: _550  and  _551
REMARK  215  A    between atoms: _550  and  _553
REMARK  216  A    between atoms: _553  and  _554
REMARK  217  A    between atoms: _557  and  _559
REMARK  218  A    between atoms: _559  and  _560
REMARK  219  A    between atoms: _563  and  _565
REMARK  220  A    between atoms: _565  and  _566
REMARK  221  A    between atoms: _568  and  _570
REMARK  222  A    between atoms: _570  and  _571
REMARK  223  A    between atoms: _570  and  _573
REMARK  224  A    between atoms: _573  and  _574
REMARK  225  A    between atoms: _579  and  _581
REMARK  226  A    between atoms: _581  and  _582
REMARK  227  A    between atoms: _581  and  _584
REMARK  228  A    between atoms: _584  and  _585
REMARK                            x       y       z     vdW  Elec       q    Type
REMARK                         _______ _______ _______ _____ _____    ______ ____
ROOT
ATOM      1  CA  THR A   5     -13.250  16.236 -20.333  0.00  0.00    +0.176 C 
ENDROOT
BRANCH   1   2
ATOM      2  C   THR A   5     -12.947  15.089 -21.279  0.00  0.00    +0.243 C 
ATOM      3  N   TYR A   6     -12.287  14.068 -20.748  0.00  0.00    -0.297 N 
ATOM      4  H   TYR A   6     -11.926  14.152 -19.776  0.00  0.00    +0.150 HD
ATOM      5  O   THR A   5     -13.285  15.136 -22.462  0.00  0.00    -0.273 OA
BRANCH   3   6
ATOM      6  CA  TYR A   6     -12.053  12.836 -21.481  0.00  0.00    +0.153 C 
BRANCH   6   7
ATOM      7  C   TYR A   6     -12.404  11.680 -20.570  0.00  0.00    +0.241 C 
ATOM      8  O   TYR A   6     -12.475  11.843 -19.349  0.00  0.00    -0.273 OA
ATOM      9  N   PHE A   7     -12.640  10.518 -21.164  0.00  0.00    -0.298 N 
ATOM     10  H   PHE A   7     -12.619  10.458 -22.202  0.00  0.00    +0.150 HD
BRANCH   9  11
ATOM     11  CA  PHE A   7     -12.927   9.329 -20.384  0.00  0.00    +0.141 C 
BRANCH  11  12
ATOM     12  C   PHE A   7     -11.767   8.353 -20.431  0.00  0.00    +0.227 C 
ATOM     13  O   PHE A   7     -11.158   8.123 -21.480  0.00  0.00    -0.286 OA
ENDBRANCH  11  12
BRANCH  11  14
ATOM     14  CB  PHE A   7     -14.251   8.704 -20.814  0.00  0.00    +0.054 C 
BRANCH  14  15
ATOM     15  CG  PHE A   7     -15.435   9.396 -20.215  0.00  0.00    -0.020 A 
ATOM     16  CD2 PHE A   7     -16.043   8.893 -19.079  0.00  0.00    -0.004 A 
ATOM     17  CE2 PHE A   7     -17.119   9.542 -18.509  0.00  0.00    -0.000 A 
ATOM     18  CZ  PHE A   7     -17.589  10.717 -19.065  0.00  0.00    -0.000 A 
ATOM     19  CE1 PHE A   7     -16.982  11.237 -20.189  0.00  0.00    -0.000 A 
ATOM     20  CD1 PHE A   7     -15.905  10.580 -20.756  0.00  0.00    -0.004 A 
ENDBRANCH  14  15
ENDBRANCH  11  14
ENDBRANCH   9  11
ENDBRANCH   6   7
BRANCH   6  21
ATOM     21  CB  TYR A   6     -10.598  12.729 -21.946  0.00  0.00    +0.055 C 
BRANCH  21  22
ATOM     22  CG  TYR A   6      -9.579  13.215 -20.941  0.00  0.00    -0.020 A 
ATOM     23  CD2 TYR A   6      -8.895  12.320 -20.130  0.00  0.00    -0.001 A 
ATOM     24  CE2 TYR A   6      -7.958  12.758 -19.211  0.00  0.00    +0.036 A 
ATOM     25  CZ  TYR A   6      -7.692  14.107 -19.099  0.00  0.00    +0.134 A 
ATOM     26  CE1 TYR A   6      -8.355  15.018 -19.896  0.00  0.00    +0.036 A 
ATOM     27  CD1 TYR A   6      -9.292  14.569 -20.812  0.00  0.00    -0.001 A 
BRANCH  25  28
ATOM     28  OH  TYR A   6      -6.763  14.546 -18.184  0.00  0.00    -0.506 OA
ATOM     29  HH  TYR A   6      -6.694  15.532 -18.233  0.00  0.00    +0.292 HD
ENDBRANCH  25  28
ENDBRANCH  21  22
ENDBRANCH   6  21
ENDBRANCH   3   6
ENDBRANCH   1   2
BRANCH   1  32
ATOM     30  C   VAL A   4     -11.671  18.051 -20.648  0.00  0.00    +0.241 C 
ATOM     31  O   VAL A   4     -10.919  17.625 -19.769  0.00  0.00    -0.273 OA
ATOM     32  N   THR A   5     -12.831  17.482 -20.954  0.00  0.00    -0.295 N 
ATOM     33  H   THR A   5     -13.453  17.937 -21.652  0.00  0.00    +0.150 HD
BRANCH  30  34
ATOM     34  CA  VAL A   4     -11.310  19.297 -21.429  0.00  0.00    +0.149 C 
BRANCH  34  36
ATOM     35  C   GLY A   3     -11.608  21.489 -20.416  0.00  0.00    +0.243 C 
ATOM     36  N   VAL A   4     -10.991  20.316 -20.445  0.00  0.00    -0.297 N 
ATOM     37  H   VAL A   4     -10.253  20.119 -19.739  0.00  0.00    +0.150 HD
ATOM     38  O   GLY A   3     -12.270  21.931 -21.357  0.00  0.00    -0.273 OA
BRANCH  35  39
ATOM     39  CA  GLY A   3     -11.420  22.287 -19.147  0.00  0.00    +0.176 C 
BRANCH  39  42
ATOM     40  C   GLY A   2     -10.752  24.610 -18.954  0.00  0.00    +0.243 C 
ATOM     41  O   GLY A   2      -9.733  24.329 -18.324  0.00  0.00    -0.273 OA
ATOM     42  N   GLY A   3     -11.627  23.703 -19.371  0.00  0.00    -0.295 N 
ATOM     43  H   GLY A   3     -12.483  24.017 -19.871  0.00  0.00    +0.150 HD
BRANCH  40  44
ATOM     44  CA  GLY A   2     -11.076  26.042 -19.304  0.00  0.00    +0.176 C 
BRANCH  44  46
ATOM     45  C   MET A   1     -10.035  28.217 -19.360  0.00  0.00    +0.238 C 
ATOM     46  N   GLY A   2      -9.927  26.910 -19.163  0.00  0.00    -0.296 N 
ATOM     47  H   GLY A   2      -9.005  26.504 -18.904  0.00  0.00    +0.150 HD
ATOM     48  O   MET A   1     -11.091  28.760 -19.686  0.00  0.00    -0.274 OA
BRANCH  45  49
ATOM     49  CA  MET A   1      -8.773  29.035 -19.177  0.00  0.00    +0.146 C 
BRANCH  49  50
ATOM     50  N   MET A   1      -8.823  30.129 -20.135  0.00  0.00    -0.238 NA
ATOM     51  H   MET A   1      -9.658  30.749 -20.150  0.00  0.00    +0.142 HD
ENDBRANCH  49  50
BRANCH  49  52
ATOM     52  CB  MET A   1      -8.675  29.542 -17.740  0.00  0.00    +0.038 C 
BRANCH  52  53
ATOM     53  CG  MET A   1      -8.522  28.423 -16.713  0.00  0.00    +0.060 C 
BRANCH  53  54
ATOM     54  SD  MET A   1      -8.298  29.015 -15.023  0.00  0.00    -0.139 S 
ATOM     55  CE  MET A   1      -6.701  29.807 -15.153  0.00  0.00    +0.069 C 
ENDBRANCH  53  54
ENDBRANCH  52  53
ENDBRANCH  49  52
ENDBRANCH  45  49
ENDBRANCH  44  46
ENDBRANCH  40  44
ENDBRANCH  39  42
ENDBRANCH  35  39
ENDBRANCH  34  36
BRANCH  34  56
ATOM     56  CB  VAL A   4     -10.124  18.986 -22.359  0.00  0.00    +0.027 C 
ATOM     57  CG2 VAL A   4      -9.714  20.227 -23.130  0.00  0.00    +0.002 C 
ATOM     58  CG1 VAL A   4     -10.481  17.851 -23.320  0.00  0.00    +0.002 C 
ENDBRANCH  34  56
ENDBRANCH  30  34
ENDBRANCH   1  32
BRANCH   1  59
ATOM     59  CB  THR A   5     -14.751  16.241 -19.993  0.00  0.00    +0.137 C 
ATOM     60  CG2 THR A   5     -15.149  14.954 -19.282  0.00  0.00    +0.034 C 
BRANCH  59  61
ATOM     61  OG1 THR A   5     -15.048  17.355 -19.142  0.00  0.00    -0.382 OA
ATOM     62  HG1 THR A   5     -16.014  17.355 -18.925  0.00  0.00    +0.210 HD
ENDBRANCH  59  61
ENDBRANCH   1  59
TORSDOF 25
REMARK  Name = ../refined-set-2016/4c1u/4c1u_pocket.pdb
REMARK  228 active torsions:
REMARK  status: ('A' for Active; 'I' for Inactive)
REMARK    1  A    between atoms: _1  and  _3
REMARK    2  A    between atoms: _3  and  _4
REMARK    3  A    between atoms: _3  and  _6
REMARK    4  A    between atoms: _6  and  _7
REMARK    5  A    between atoms: _12  and  _14
REMARK    6  A    between atoms: _14  and  _15
REMARK    7  A    between atoms: _14  and  _17
REMARK    8  A    between atoms: _17  and  _18
REMARK    9  A    between atoms: _23  and  _25
REMARK   10  A    between atoms: _25  and  _26
REMARK   11  A    between atoms: _29  and  _31
REMARK   12  A    between atoms: _31  and  _32
REMARK   13  A    between atoms: _31  and  _34
REMARK   14  A    between atoms: _34  and  _35
REMARK   15  A    between atoms: _37  and  _39
REMARK   16  A    between atoms: _39  and  _40
REMARK   17  A    between atoms: _43  and  _45
REMARK   18  A    between atoms: _45  and  _46
REMARK   19  A    between atoms: _48  and  _50
REMARK   20  A    between atoms: _50  and  _51
REMARK   21  A    between atoms: _50  and  _53
REMARK   22  A    between atoms: _53  and  _54
REMARK   23  A    between atoms: _54  and  _55
REMARK   24  A    between atoms: _55  and  _56
REMARK   25  A    between atoms: _65  and  _67
REMARK   26  A    between atoms: _67  and  _68
REMARK   27  A    between atoms: _67  and  _70
REMARK   28  A    between atoms: _70  and  _71
REMARK   29  A    between atoms: _81  and  _83
REMARK   30  A    between atoms: _83  and  _84
REMARK   31  A    between atoms: _83  and  _86
REMARK   32  A    between atoms: _86  and  _87
REMARK   33  A    between atoms: _90  and  _92
REMARK   34  A    between atoms: _92  and  _93
REMARK   35  A    between atoms: _92  and  _95
REMARK   36  A    between atoms: _95  and  _96
REMARK   37  A    between atoms: _96  and  _97
REMARK   38  A    between atoms: _102  and  _104
REMARK   39  A    between atoms: _104  and  _105
REMARK   40  A    between atoms: _104  and  _107
REMARK   41  A    between atoms: _107  and  _108
REMARK   42  A    between atoms: _113  and  _115
REMARK   43  A    between atoms: _115  and  _116
REMARK   44  A    between atoms: _115  and  _118
REMARK   45  A    between atoms: _118  and  _119
REMARK   46  A    between atoms: _119  and  _120
REMARK   47  A    between atoms: _123  and  _125
REMARK   48  A    between atoms: _125  and  _126
REMARK   49  A    between atoms: _125  and  _128
REMARK   50  A    between atoms: _128  and  _129
REMARK   51  A    between atoms: _135  and  _137
REMARK   52  A    between atoms: _137  and  _138
REMARK   53  A    between atoms: _141  and  _143
REMARK   54  A    between atoms: _143  and  _144
REMARK   55  A    between atoms: _143  and  _146
REMARK   56  A    between atoms: _146  and  _147
REMARK   57  A    between atoms: _147  and  _148
REMARK   58  A    between atoms: _150  and  _152
REMARK   59  A    between atoms: _152  and  _153
REMARK   60  A    between atoms: _152  and  _155
REMARK   61  A    between atoms: _155  and  _156
REMARK   62  A    between atoms: _158  and  _160
REMARK   63  A    between atoms: _160  and  _161
REMARK   64  A    between atoms: _160  and  _163
REMARK   65  A    between atoms: _163  and  _164
REMARK   66  A    between atoms: _167  and  _169
REMARK   67  A    between atoms: _169  and  _170
REMARK   68  A    between atoms: _169  and  _172
REMARK   69  A    between atoms: _172  and  _173
REMARK   70  A    between atoms: _173  and  _174
REMARK   71  A    between atoms: _174  and  _175
REMARK   72  A    between atoms: _175  and  _176
REMARK   73  A    between atoms: _180  and  _182
REMARK   74  A    between atoms: _182  and  _183
REMARK   75  A    between atoms: _182  and  _185
REMARK   76  A    between atoms: _188  and  _190
REMARK   77  A    between atoms: _190  and  _191
REMARK   78  A    between atoms: _190  and  _193
REMARK   79  A    between atoms: _193  and  _194
REMARK   80  A    between atoms: _196  and  _198
REMARK   81  A    between atoms: _198  and  _199
REMARK   82  A    between atoms: _198  and  _201
REMARK   83  A    between atoms: _204  and  _206
REMARK   84  A    between atoms: _206  and  _207
REMARK   85  A    between atoms: _206  and  _209
REMARK   86  A    between atoms: _209  and  _210
REMARK   87  A    between atoms: _210  and  _211
REMARK   88  A    between atoms: _214  and  _216
REMARK   89  A    between atoms: _216  and  _217
REMARK   90  A    between atoms: _216  and  _219
REMARK   91  A    between atoms: _219  and  _220
REMARK   92  A    between atoms: _223  and  _225
REMARK   93  A    between atoms: _225  and  _226
REMARK   94  A    between atoms: _229  and  _231
REMARK   95  A    between atoms: _231  and  _232
REMARK   96  A    between atoms: _231  and  _234
REMARK   97  A    between atoms: _234  and  _235
REMARK   98  A    between atoms: _246  and  _247
REMARK   99  A    between atoms: _252  and  _254
REMARK  100  A    between atoms: _254  and  _255
REMARK  101  A    between atoms: _258  and  _260
REMARK  102  A    between atoms: _260  and  _261
REMARK  103  A    between atoms: _260  and  _263
REMARK  104  A    between atoms: _263  and  _264
REMARK  105  A    between atoms: _269  and  _271
REMARK  106  A    between atoms: _271  and  _272
REMARK  107  A    between atoms: _271  and  _274
REMARK  108  A    between atoms: _274  and  _275
REMARK  109  A    between atoms: _280  and  _281
REMARK  110  A    between atoms: _283  and  _285
REMARK  111  A    between atoms: _285  and  _286
REMARK  112  A    between atoms: _289  and  _291
REMARK  113  A    between atoms: _291  and  _292
REMARK  114  A    between atoms: _291  and  _294
REMARK  115  A    between atoms: _294  and  _295
REMARK  116  A    between atoms: _295  and  _296
REMARK  117  A    between atoms: _301  and  _303
REMARK  118  A    between atoms: _303  and  _304
REMARK  119  A    between atoms: _303  and  _306
REMARK  120  A    between atoms: _306  and  _307
REMARK  121  A    between atoms: _307  and  _308
REMARK  122  A    between atoms: _310  and  _312
REMARK  123  A    between atoms: _312  and  _313
REMARK  124  A    between atoms: _315  and  _317
REMARK  125  A    between atoms: _317  and  _318
REMARK  126  A    between atoms: _321  and  _323
REMARK  127  A    between atoms: _323  and  _324
REMARK  128  A    between atoms: _323  and  _326
REMARK  129  A    between atoms: _326  and  _327
REMARK  130  A    between atoms: _337  and  _339
REMARK  131  A    between atoms: _339  and  _340
REMARK  132  A    between atoms: _339  and  _342
REMARK  133  A    between atoms: _342  and  _343
REMARK  134  A    between atoms: _343  and  _344
REMARK  135  A    between atoms: _347  and  _349
REMARK  136  A    between atoms: _349  and  _350
REMARK  137  A    between atoms: _352  and  _354
REMARK  138  A    between atoms: _354  and  _355
REMARK  139  A    between atoms: _354  and  _357
REMARK  140  A    between atoms: _360  and  _362
REMARK  141  A    between atoms: _362  and  _363
REMARK  142  A    between atoms: _362  and  _365
REMARK  143  A    between atoms: _365  and  _366
REMARK  144  A    between atoms: _366  and  _367
REMARK  145  A    between atoms: _369  and  _371
REMARK  146  A    between atoms: _371  and  _372
REMARK  147  A    between atoms: _374  and  _376
REMARK  148  A    between atoms: _376  and  _377
REMARK  149  A    between atoms: _379  and  _381
REMARK  150  A    between atoms: _381  and  _382
REMARK  151  A    between atoms: _381  and  _384
REMARK  152  A    between atoms: _387  and  _389
REMARK  153  A    between atoms: _389  and  _390
REMARK  154  A    between atoms: _389  and  _392
REMARK  155  A    between atoms: _392  and  _393
REMARK  156  A    between atoms: _396  and  _398
REMARK  157  A    between atoms: _398  and  _399
REMARK  158  A    between atoms: _398  and  _401
REMARK  159  A    between atoms: _401  and  _402
REMARK  160  A    between atoms: _407  and  _408
REMARK  161  A    between atoms: _410  and  _412
REMARK  162  A    between atoms: _412  and  _413
REMARK  163  A    between atoms: _412  and  _415
REMARK  164  A    between atoms: _415  and  _416
REMARK  165  A    between atoms: _422  and  _424
REMARK  166  A    between atoms: _424  and  _425
REMARK  167  A    between atoms: _424  and  _427
REMARK  168  A    between atoms: _427  and  _428
REMARK  169  A    between atoms: _428  and  _429
REMARK  170  A    between atoms: _434  and  _436
REMARK  171  A    between atoms: _436  and  _437
REMARK  172  A    between atoms: _436  and  _439
REMARK  173  A    between atoms: _439  and  _440
REMARK  174  A    between atoms: _445  and  _446
REMARK  175  A    between atoms: _448  and  _450
REMARK  176  A    between atoms: _450  and  _451
REMARK  177  A    between atoms: _454  and  _456
REMARK  178  A    between atoms: _456  and  _457
REMARK  179  A    between atoms: _456  and  _459
REMARK  180  A    between atoms: _459  and  _460
REMARK  181  A    between atoms: _466  and  _468
REMARK  182  A    between atoms: _468  and  _469
REMARK  183  A    between atoms: _468  and  _471
REMARK  184  A    between atoms: _471  and  _472
REMARK  185  A    between atoms: _474  and  _476
REMARK  186  A    between atoms: _476  and  _477
REMARK  187  A    between atoms: _476  and  _479
REMARK  188  A    between atoms: _479  and  _480
REMARK  189  A    between atoms: _483  and  _485
REMARK  190  A    between atoms: _485  and  _486
REMARK  191  A    between atoms: _485  and  _488
REMARK  192  A    between atoms: _488  and  _489
REMARK  193  A    between atoms: _493  and  _494
REMARK  194  A    between atoms: _499  and  _501
REMARK  195  A    between atoms: _501  and  _502
REMARK  196  A    between atoms: _505  and  _507
REMARK  197  A    between atoms: _507  and  _508
REMARK  198  A    between atoms: _507  and  _510
REMARK  199  A    between atoms: _510  and  _511
REMARK  200  A    between atoms: _514  and  _516
REMARK  201  A    between atoms: _516  and  _517
REMARK  202  A    between atoms: _516  and  _519
REMARK  203  A    between atoms: _519  and  _520
REMARK  204  A    between atoms: _530  and  _532
REMARK  205  A    between atoms: _532  and  _533
REMARK  206  A    between atoms: _532  and  _535
REMARK  207  A    between atoms: _535  and  _536
REMARK  208  A    between atoms: _536  and  _537
REMARK  209  A    between atoms: _539  and  _541
REMARK  210  A    between atoms: _541  and  _542
REMARK  211  A    between atoms: _541  and  _544
REMARK  212  A    between atoms: _544  and  _545
REMARK  213  A    between atoms: _548  and  _550
REMARK  214  A    between atoms: _550  and  _551
REMARK  215  A    between atoms: _550  and  _553
REMARK  216  A    between atoms: _553  and  _554
REMARK  217  A    between atoms: _557  and  _559
REMARK  218  A    between atoms: _559  and  _560
REMARK  219  A    between atoms: _563  and  _565
REMARK  220  A    between atoms: _565  and  _566
REMARK  221  A    between atoms: _568  and  _570
REMARK  222  A    between atoms: _570  and  _571
REMARK  223  A    between atoms: _570  and  _573
REMARK  224  A    between atoms: _573  and  _574
REMARK  225  A    between atoms: _579  and  _581
REMARK  226  A    between atoms: _581  and  _582
REMARK  227  A    between atoms: _581  and  _584
REMARK  228  A    between atoms: _584  and  _585
REMARK                            x       y       z     vdW  Elec       q    Type
REMARK                         _______ _______ _______ _____ _____    ______ ____
ROOT
ATOM      1  CB  GLN A   1     -19.031  13.850 -30.815  0.00  0.00    +0.035 C 
ENDROOT
BRANCH   1   2
ATOM      2  CA  GLN A   1     -20.396  13.514 -30.216  0.00  0.00    +0.134 C 
BRANCH   2   3
ATOM      3  N   GLN A   1     -20.853  12.205 -30.677  0.00  0.00    -0.239 NA
ATOM      4  H   GLN A   1     -20.379  11.759 -31.488  0.00  0.00    +0.142 HD
ENDBRANCH   2   3
BRANCH   2   5
ATOM      5  C   GLN A   1     -21.403  14.600 -30.579  0.00  0.00    +0.224 C 
ATOM      6  O   GLN A   1     -21.533  15.602 -29.875  0.00  0.00    -0.287 OA
ENDBRANCH   2   5
ENDBRANCH   1   2
BRANCH   1   7
ATOM      7  CG  GLN A   1     -17.855  13.320 -30.008  0.00  0.00    +0.087 C 
BRANCH   7   8
ATOM      8  CD  GLN A   1     -17.514  14.211 -28.829  0.00  0.00    +0.219 C 
ATOM      9  NE2 GLN A   1     -18.102  13.918 -27.674  0.00  0.00    -0.329 N 
ATOM     10 HE21 GLN A   1     -17.910  14.496 -26.831  0.00  0.00    +0.145 HD
ATOM     11 HE22 GLN A   1     -18.754  13.110 -27.613  0.00  0.00    +0.145 HD
ATOM     12  OE1 GLN A   1     -16.733  15.156 -28.958  0.00  0.00    -0.275 OA
ENDBRANCH   7   8
ENDBRANCH   1   7
TORSDOF 5
REMARK  Name = ../refined-set-2016/4c1u/4c1u_pocket.pdb
REMARK  228 active torsions:
REMARK  status: ('A' for Active; 'I' for Inactive)
REMARK    1  A    between atoms: _1  and  _3
REMARK    2  A    between atoms: _3  and  _4
REMARK    3  A    between atoms: _3  and  _6
REMARK    4  A    between atoms: _6  and  _7
REMARK    5  A    between atoms: _12  and  _14
REMARK    6  A    between atoms: _14  and  _15
REMARK    7  A    between atoms: _14  and  _17
REMARK    8  A    between atoms: _17  and  _18
REMARK    9  A    between atoms: _23  and  _25
REMARK   10  A    between atoms: _25  and  _26
REMARK   11  A    between atoms: _29  and  _31
REMARK   12  A    between atoms: _31  and  _32
REMARK   13  A    between atoms: _31  and  _34
REMARK   14  A    between atoms: _34  and  _35
REMARK   15  A    between atoms: _37  and  _39
REMARK   16  A    between atoms: _39  and  _40
REMARK   17  A    between atoms: _43  and  _45
REMARK   18  A    between atoms: _45  and  _46
REMARK   19  A    between atoms: _48  and  _50
REMARK   20  A    between atoms: _50  and  _51
REMARK   21  A    between atoms: _50  and  _53
REMARK   22  A    between atoms: _53  and  _54
REMARK   23  A    between atoms: _54  and  _55
REMARK   24  A    between atoms: _55  and  _56
REMARK   25  A    between atoms: _65  and  _67
REMARK   26  A    between atoms: _67  and  _68
REMARK   27  A    between atoms: _67  and  _70
REMARK   28  A    between atoms: _70  and  _71
REMARK   29  A    between atoms: _81  and  _83
REMARK   30  A    between atoms: _83  and  _84
REMARK   31  A    between atoms: _83  and  _86
REMARK   32  A    between atoms: _86  and  _87
REMARK   33  A    between atoms: _90  and  _92
REMARK   34  A    between atoms: _92  and  _93
REMARK   35  A    between atoms: _92  and  _95
REMARK   36  A    between atoms: _95  and  _96
REMARK   37  A    between atoms: _96  and  _97
REMARK   38  A    between atoms: _102  and  _104
REMARK   39  A    between atoms: _104  and  _105
REMARK   40  A    between atoms: _104  and  _107
REMARK   41  A    between atoms: _107  and  _108
REMARK   42  A    between atoms: _113  and  _115
REMARK   43  A    between atoms: _115  and  _116
REMARK   44  A    between atoms: _115  and  _118
REMARK   45  A    between atoms: _118  and  _119
REMARK   46  A    between atoms: _119  and  _120
REMARK   47  A    between atoms: _123  and  _125
REMARK   48  A    between atoms: _125  and  _126
REMARK   49  A    between atoms: _125  and  _128
REMARK   50  A    between atoms: _128  and  _129
REMARK   51  A    between atoms: _135  and  _137
REMARK   52  A    between atoms: _137  and  _138
REMARK   53  A    between atoms: _141  and  _143
REMARK   54  A    between atoms: _143  and  _144
REMARK   55  A    between atoms: _143  and  _146
REMARK   56  A    between atoms: _146  and  _147
REMARK   57  A    between atoms: _147  and  _148
REMARK   58  A    between atoms: _150  and  _152
REMARK   59  A    between atoms: _152  and  _153
REMARK   60  A    between atoms: _152  and  _155
REMARK   61  A    between atoms: _155  and  _156
REMARK   62  A    between atoms: _158  and  _160
REMARK   63  A    between atoms: _160  and  _161
REMARK   64  A    between atoms: _160  and  _163
REMARK   65  A    between atoms: _163  and  _164
REMARK   66  A    between atoms: _167  and  _169
REMARK   67  A    between atoms: _169  and  _170
REMARK   68  A    between atoms: _169  and  _172
REMARK   69  A    between atoms: _172  and  _173
REMARK   70  A    between atoms: _173  and  _174
REMARK   71  A    between atoms: _174  and  _175
REMARK   72  A    between atoms: _175  and  _176
REMARK   73  A    between atoms: _180  and  _182
REMARK   74  A    between atoms: _182  and  _183
REMARK   75  A    between atoms: _182  and  _185
REMARK   76  A    between atoms: _188  and  _190
REMARK   77  A    between atoms: _190  and  _191
REMARK   78  A    between atoms: _190  and  _193
REMARK   79  A    between atoms: _193  and  _194
REMARK   80  A    between atoms: _196  and  _198
REMARK   81  A    between atoms: _198  and  _199
REMARK   82  A    between atoms: _198  and  _201
REMARK   83  A    between atoms: _204  and  _206
REMARK   84  A    between atoms: _206  and  _207
REMARK   85  A    between atoms: _206  and  _209
REMARK   86  A    between atoms: _209  and  _210
REMARK   87  A    between atoms: _210  and  _211
REMARK   88  A    between atoms: _214  and  _216
REMARK   89  A    between atoms: _216  and  _217
REMARK   90  A    between atoms: _216  and  _219
REMARK   91  A    between atoms: _219  and  _220
REMARK   92  A    between atoms: _223  and  _225
REMARK   93  A    between atoms: _225  and  _226
REMARK   94  A    between atoms: _229  and  _231
REMARK   95  A    between atoms: _231  and  _232
REMARK   96  A    between atoms: _231  and  _234
REMARK   97  A    between atoms: _234  and  _235
REMARK   98  A    between atoms: _246  and  _247
REMARK   99  A    between atoms: _252  and  _254
REMARK  100  A    between atoms: _254  and  _255
REMARK  101  A    between atoms: _258  and  _260
REMARK  102  A    between atoms: _260  and  _261
REMARK  103  A    between atoms: _260  and  _263
REMARK  104  A    between atoms: _263  and  _264
REMARK  105  A    between atoms: _269  and  _271
REMARK  106  A    between atoms: _271  and  _272
REMARK  107  A    between atoms: _271  and  _274
REMARK  108  A    between atoms: _274  and  _275
REMARK  109  A    between atoms: _280  and  _281
REMARK  110  A    between atoms: _283  and  _285
REMARK  111  A    between atoms: _285  and  _286
REMARK  112  A    between atoms: _289  and  _291
REMARK  113  A    between atoms: _291  and  _292
REMARK  114  A    between atoms: _291  and  _294
REMARK  115  A    between atoms: _294  and  _295
REMARK  116  A    between atoms: _295  and  _296
REMARK  117  A    between atoms: _301  and  _303
REMARK  118  A    between atoms: _303  and  _304
REMARK  119  A    between atoms: _303  and  _306
REMARK  120  A    between atoms: _306  and  _307
REMARK  121  A    between atoms: _307  and  _308
REMARK  122  A    between atoms: _310  and  _312
REMARK  123  A    between atoms: _312  and  _313
REMARK  124  A    between atoms: _315  and  _317
REMARK  125  A    between atoms: _317  and  _318
REMARK  126  A    between atoms: _321  and  _323
REMARK  127  A    between atoms: _323  and  _324
REMARK  128  A    between atoms: _323  and  _326
REMARK  129  A    between atoms: _326  and  _327
REMARK  130  A    between atoms: _337  and  _339
REMARK  131  A    between atoms: _339  and  _340
REMARK  132  A    between atoms: _339  and  _342
REMARK  133  A    between atoms: _342  and  _343
REMARK  134  A    between atoms: _343  and  _344
REMARK  135  A    between atoms: _347  and  _349
REMARK  136  A    between atoms: _349  and  _350
REMARK  137  A    between atoms: _352  and  _354
REMARK  138  A    between atoms: _354  and  _355
REMARK  139  A    between atoms: _354  and  _357
REMARK  140  A    between atoms: _360  and  _362
REMARK  141  A    between atoms: _362  and  _363
REMARK  142  A    between atoms: _362  and  _365
REMARK  143  A    between atoms: _365  and  _366
REMARK  144  A    between atoms: _366  and  _367
REMARK  145  A    between atoms: _369  and  _371
REMARK  146  A    between atoms: _371  and  _372
REMARK  147  A    between atoms: _374  and  _376
REMARK  148  A    between atoms: _376  and  _377
REMARK  149  A    between atoms: _379  and  _381
REMARK  150  A    between atoms: _381  and  _382
REMARK  151  A    between atoms: _381  and  _384
REMARK  152  A    between atoms: _387  and  _389
REMARK  153  A    between atoms: _389  and  _390
REMARK  154  A    between atoms: _389  and  _392
REMARK  155  A    between atoms: _392  and  _393
REMARK  156  A    between atoms: _396  and  _398
REMARK  157  A    between atoms: _398  and  _399
REMARK  158  A    between atoms: _398  and  _401
REMARK  159  A    between atoms: _401  and  _402
REMARK  160  A    between atoms: _407  and  _408
REMARK  161  A    between atoms: _410  and  _412
REMARK  162  A    between atoms: _412  and  _413
REMARK  163  A    between atoms: _412  and  _415
REMARK  164  A    between atoms: _415  and  _416
REMARK  165  A    between atoms: _422  and  _424
REMARK  166  A    between atoms: _424  and  _425
REMARK  167  A    between atoms: _424  and  _427
REMARK  168  A    between atoms: _427  and  _428
REMARK  169  A    between atoms: _428  and  _429
REMARK  170  A    between atoms: _434  and  _436
REMARK  171  A    between atoms: _436  and  _437
REMARK  172  A    between atoms: _436  and  _439
REMARK  173  A    between atoms: _439  and  _440
REMARK  174  A    between atoms: _445  and  _446
REMARK  175  A    between atoms: _448  and  _450
REMARK  176  A    between atoms: _450  and  _451
REMARK  177  A    between atoms: _454  and  _456
REMARK  178  A    between atoms: _456  and  _457
REMARK  179  A    between atoms: _456  and  _459
REMARK  180  A    between atoms: _459  and  _460
REMARK  181  A    between atoms: _466  and  _468
REMARK  182  A    between atoms: _468  and  _469
REMARK  183  A    between atoms: _468  and  _471
REMARK  184  A    between atoms: _471  and  _472
REMARK  185  A    between atoms: _474  and  _476
REMARK  186  A    between atoms: _476  and  _477
REMARK  187  A    between atoms: _476  and  _479
REMARK  188  A    between atoms: _479  and  _480
REMARK  189  A    between atoms: _483  and  _485
REMARK  190  A    between atoms: _485  and  _486
REMARK  191  A    between atoms: _485  and  _488
REMARK  192  A    between atoms: _488  and  _489
REMARK  193  A    between atoms: _493  and  _494
REMARK  194  A    between atoms: _499  and  _501
REMARK  195  A    between atoms: _501  and  _502
REMARK  196  A    between atoms: _505  and  _507
REMARK  197  A    between atoms: _507  and  _508
REMARK  198  A    between atoms: _507  and  _510
REMARK  199  A    between atoms: _510  and  _511
REMARK  200  A    between atoms: _514  and  _516
REMARK  201  A    between atoms: _516  and  _517
REMARK  202  A    between atoms: _516  and  _519
REMARK  203  A    between atoms: _519  and  _520
REMARK  204  A    between atoms: _530  and  _532
REMARK  205  A    between atoms: _532  and  _533
REMARK  206  A    between atoms: _532  and  _535
REMARK  207  A    between atoms: _535  and  _536
REMARK  208  A    between atoms: _536  and  _537
REMARK  209  A    between atoms: _539  and  _541
REMARK  210  A    between atoms: _541  and  _542
REMARK  211  A    between atoms: _541  and  _544
REMARK  212  A    between atoms: _544  and  _545
REMARK  213  A    between atoms: _548  and  _550
REMARK  214  A    between atoms: _550  and  _551
REMARK  215  A    between atoms: _550  and  _553
REMARK  216  A    between atoms: _553  and  _554
REMARK  217  A    between atoms: _557  and  _559
REMARK  218  A    between atoms: _559  and  _560
REMARK  219  A    between atoms: _563  and  _565
REMARK  220  A    between atoms: _565  and  _566
REMARK  221  A    between atoms: _568  and  _570
REMARK  222  A    between atoms: _570  and  _571
REMARK  223  A    between atoms: _570  and  _573
REMARK  224  A    between atoms: _573  and  _574
REMARK  225  A    between atoms: _579  and  _581
REMARK  226  A    between atoms: _581  and  _582
REMARK  227  A    between atoms: _581  and  _584
REMARK  228  A    between atoms: _584  and  _585
REMARK                            x       y       z     vdW  Elec       q    Type
REMARK                         _______ _______ _______ _____ _____    ______ ____
ROOT
ATOM      1  CG  TYR A   1     -21.354  14.768 -25.476  0.00  0.00    -0.020 A 
ATOM      2  CD2 TYR A   1     -21.119  13.806 -24.501  0.00  0.00    -0.001 A 
ATOM      3  CE2 TYR A   1     -20.528  14.139 -23.297  0.00  0.00    +0.036 A 
ATOM      4  CZ  TYR A   1     -20.157  15.448 -23.058  0.00  0.00    +0.134 A 
ATOM      5  CE1 TYR A   1     -20.377  16.419 -24.009  0.00  0.00    +0.036 A 
ATOM      6  CD1 TYR A   1     -20.968  16.076 -25.212  0.00  0.00    -0.001 A 
ENDROOT
BRANCH   4   7
ATOM      7  OH  TYR A   1     -19.570  15.788 -21.862  0.00  0.00    -0.506 OA
ATOM      8  HH  TYR A   1     -19.370  16.758 -21.858  0.00  0.00    +0.292 HD
ENDBRANCH   4   7
BRANCH   1   9
ATOM      9  CB  TYR A   1     -21.996  14.396 -26.794  0.00  0.00    +0.051 C 
BRANCH   9  10
ATOM     10  CA  TYR A   1     -23.483  14.738 -26.891  0.00  0.00    +0.137 C 
BRANCH  10  11
ATOM     11  N   TYR A   1     -24.037  14.229 -28.140  0.00  0.00    -0.239 NA
ATOM     12  H   TYR A   1     -23.402  13.773 -28.826  0.00  0.00    +0.142 HD
ENDBRANCH  10  11
BRANCH  10  13
ATOM     13  C   TYR A   1     -23.673  16.247 -26.811  0.00  0.00    +0.224 C 
ATOM     14  O   TYR A   1     -24.139  16.770 -25.799  0.00  0.00    -0.287 OA
ENDBRANCH  10  13
ENDBRANCH   9  10
ENDBRANCH   1   9
TORSDOF 5
REMARK  Name = ../refined-set-2016/4c1u/4c1u_pocket.pdb
REMARK  228 active torsions:
REMARK  status: ('A' for Active; 'I' for Inactive)
REMARK    1  A    between atoms: _1  and  _3
REMARK    2  A    between atoms: _3  and  _4
REMARK    3  A    between atoms: _3  and  _6
REMARK    4  A    between atoms: _6  and  _7
REMARK    5  A    between atoms: _12  and  _14
REMARK    6  A    between atoms: _14  and  _15
REMARK    7  A    between atoms: _14  and  _17
REMARK    8  A    between atoms: _17  and  _18
REMARK    9  A    between atoms: _23  and  _25
REMARK   10  A    between atoms: _25  and  _26
REMARK   11  A    between atoms: _29  and  _31
REMARK   12  A    between atoms: _31  and  _32
REMARK   13  A    between atoms: _31  and  _34
REMARK   14  A    between atoms: _34  and  _35
REMARK   15  A    between atoms: _37  and  _39
REMARK   16  A    between atoms: _39  and  _40
REMARK   17  A    between atoms: _43  and  _45
REMARK   18  A    between atoms: _45  and  _46
REMARK   19  A    between atoms: _48  and  _50
REMARK   20  A    between atoms: _50  and  _51
REMARK   21  A    between atoms: _50  and  _53
REMARK   22  A    between atoms: _53  and  _54
REMARK   23  A    between atoms: _54  and  _55
REMARK   24  A    between atoms: _55  and  _56
REMARK   25  A    between atoms: _65  and  _67
REMARK   26  A    between atoms: _67  and  _68
REMARK   27  A    between atoms: _67  and  _70
REMARK   28  A    between atoms: _70  and  _71
REMARK   29  A    between atoms: _81  and  _83
REMARK   30  A    between atoms: _83  and  _84
REMARK   31  A    between atoms: _83  and  _86
REMARK   32  A    between atoms: _86  and  _87
REMARK   33  A    between atoms: _90  and  _92
REMARK   34  A    between atoms: _92  and  _93
REMARK   35  A    between atoms: _92  and  _95
REMARK   36  A    between atoms: _95  and  _96
REMARK   37  A    between atoms: _96  and  _97
REMARK   38  A    between atoms: _102  and  _104
REMARK   39  A    between atoms: _104  and  _105
REMARK   40  A    between atoms: _104  and  _107
REMARK   41  A    between atoms: _107  and  _108
REMARK   42  A    between atoms: _113  and  _115
REMARK   43  A    between atoms: _115  and  _116
REMARK   44  A    between atoms: _115  and  _118
REMARK   45  A    between atoms: _118  and  _119
REMARK   46  A    between atoms: _119  and  _120
REMARK   47  A    between atoms: _123  and  _125
REMARK   48  A    between atoms: _125  and  _126
REMARK   49  A    between atoms: _125  and  _128
REMARK   50  A    between atoms: _128  and  _129
REMARK   51  A    between atoms: _135  and  _137
REMARK   52  A    between atoms: _137  and  _138
REMARK   53  A    between atoms: _141  and  _143
REMARK   54  A    between atoms: _143  and  _144
REMARK   55  A    between atoms: _143  and  _146
REMARK   56  A    between atoms: _146  and  _147
REMARK   57  A    between atoms: _147  and  _148
REMARK   58  A    between atoms: _150  and  _152
REMARK   59  A    between atoms: _152  and  _153
REMARK   60  A    between atoms: _152  and  _155
REMARK   61  A    between atoms: _155  and  _156
REMARK   62  A    between atoms: _158  and  _160
REMARK   63  A    between atoms: _160  and  _161
REMARK   64  A    between atoms: _160  and  _163
REMARK   65  A    between atoms: _163  and  _164
REMARK   66  A    between atoms: _167  and  _169
REMARK   67  A    between atoms: _169  and  _170
REMARK   68  A    between atoms: _169  and  _172
REMARK   69  A    between atoms: _172  and  _173
REMARK   70  A    between atoms: _173  and  _174
REMARK   71  A    between atoms: _174  and  _175
REMARK   72  A    between atoms: _175  and  _176
REMARK   73  A    between atoms: _180  and  _182
REMARK   74  A    between atoms: _182  and  _183
REMARK   75  A    between atoms: _182  and  _185
REMARK   76  A    between atoms: _188  and  _190
REMARK   77  A    between atoms: _190  and  _191
REMARK   78  A    between atoms: _190  and  _193
REMARK   79  A    between atoms: _193  and  _194
REMARK   80  A    between atoms: _196  and  _198
REMARK   81  A    between atoms: _198  and  _199
REMARK   82  A    between atoms: _198  and  _201
REMARK   83  A    between atoms: _204  and  _206
REMARK   84  A    between atoms: _206  and  _207
REMARK   85  A    between atoms: _206  and  _209
REMARK   86  A    between atoms: _209  and  _210
REMARK   87  A    between atoms: _210  and  _211
REMARK   88  A    between atoms: _214  and  _216
REMARK   89  A    between atoms: _216  and  _217
REMARK   90  A    between atoms: _216  and  _219
REMARK   91  A    between atoms: _219  and  _220
REMARK   92  A    between atoms: _223  and  _225
REMARK   93  A    between atoms: _225  and  _226
REMARK   94  A    between atoms: _229  and  _231
REMARK   95  A    between atoms: _231  and  _232
REMARK   96  A    between atoms: _231  and  _234
REMARK   97  A    between atoms: _234  and  _235
REMARK   98  A    between atoms: _246  and  _247
REMARK   99  A    between atoms: _252  and  _254
REMARK  100  A    between atoms: _254  and  _255
REMARK  101  A    between atoms: _258  and  _260
REMARK  102  A    between atoms: _260  and  _261
REMARK  103  A    between atoms: _260  and  _263
REMARK  104  A    between atoms: _263  and  _264
REMARK  105  A    between atoms: _269  and  _271
REMARK  106  A    between atoms: _271  and  _272
REMARK  107  A    between atoms: _271  and  _274
REMARK  108  A    between atoms: _274  and  _275
REMARK  109  A    between atoms: _280  and  _281
REMARK  110  A    between atoms: _283  and  _285
REMARK  111  A    between atoms: _285  and  _286
REMARK  112  A    between atoms: _289  and  _291
REMARK  113  A    between atoms: _291  and  _292
REMARK  114  A    between atoms: _291  and  _294
REMARK  115  A    between atoms: _294  and  _295
REMARK  116  A    between atoms: _295  and  _296
REMARK  117  A    between atoms: _301  and  _303
REMARK  118  A    between atoms: _303  and  _304
REMARK  119  A    between atoms: _303  and  _306
REMARK  120  A    between atoms: _306  and  _307
REMARK  121  A    between atoms: _307  and  _308
REMARK  122  A    between atoms: _310  and  _312
REMARK  123  A    between atoms: _312  and  _313
REMARK  124  A    between atoms: _315  and  _317
REMARK  125  A    between atoms: _317  and  _318
REMARK  126  A    between atoms: _321  and  _323
REMARK  127  A    between atoms: _323  and  _324
REMARK  128  A    between atoms: _323  and  _326
REMARK  129  A    between atoms: _326  and  _327
REMARK  130  A    between atoms: _337  and  _339
REMARK  131  A    between atoms: _339  and  _340
REMARK  132  A    between atoms: _339  and  _342
REMARK  133  A    between atoms: _342  and  _343
REMARK  134  A    between atoms: _343  and  _344
REMARK  135  A    between atoms: _347  and  _349
REMARK  136  A    between atoms: _349  and  _350
REMARK  137  A    between atoms: _352  and  _354
REMARK  138  A    between atoms: _354  and  _355
REMARK  139  A    between atoms: _354  and  _357
REMARK  140  A    between atoms: _360  and  _362
REMARK  141  A    between atoms: _362  and  _363
REMARK  142  A    between atoms: _362  and  _365
REMARK  143  A    between atoms: _365  and  _366
REMARK  144  A    between atoms: _366  and  _367
REMARK  145  A    between atoms: _369  and  _371
REMARK  146  A    between atoms: _371  and  _372
REMARK  147  A    between atoms: _374  and  _376
REMARK  148  A    between atoms: _376  and  _377
REMARK  149  A    between atoms: _379  and  _381
REMARK  150  A    between atoms: _381  and  _382
REMARK  151  A    between atoms: _381  and  _384
REMARK  152  A    between atoms: _387  and  _389
REMARK  153  A    between atoms: _389  and  _390
REMARK  154  A    between atoms: _389  and  _392
REMARK  155  A    between atoms: _392  and  _393
REMARK  156  A    between atoms: _396  and  _398
REMARK  157  A    between atoms: _398  and  _399
REMARK  158  A    between atoms: _398  and  _401
REMARK  159  A    between atoms: _401  and  _402
REMARK  160  A    between atoms: _407  and  _408
REMARK  161  A    between atoms: _410  and  _412
REMARK  162  A    between atoms: _412  and  _413
REMARK  163  A    between atoms: _412  and  _415
REMARK  164  A    between atoms: _415  and  _416
REMARK  165  A    between atoms: _422  and  _424
REMARK  166  A    between atoms: _424  and  _425
REMARK  167  A    between atoms: _424  and  _427
REMARK  168  A    between atoms: _427  and  _428
REMARK  169  A    between atoms: _428  and  _429
REMARK  170  A    between atoms: _434  and  _436
REMARK  171  A    between atoms: _436  and  _437
REMARK  172  A    between atoms: _436  and  _439
REMARK  173  A    between atoms: _439  and  _440
REMARK  174  A    between atoms: _445  and  _446
REMARK  175  A    between atoms: _448  and  _450
REMARK  176  A    between atoms: _450  and  _451
REMARK  177  A    between atoms: _454  and  _456
REMARK  178  A    between atoms: _456  and  _457
REMARK  179  A    between atoms: _456  and  _459
REMARK  180  A    between atoms: _459  and  _460
REMARK  181  A    between atoms: _466  and  _468
REMARK  182  A    between atoms: _468  and  _469
REMARK  183  A    between atoms: _468  and  _471
REMARK  184  A    between atoms: _471  and  _472
REMARK  185  A    between atoms: _474  and  _476
REMARK  186  A    between atoms: _476  and  _477
REMARK  187  A    between atoms: _476  and  _479
REMARK  188  A    between atoms: _479  and  _480
REMARK  189  A    between atoms: _483  and  _485
REMARK  190  A    between atoms: _485  and  _486
REMARK  191  A    between atoms: _485  and  _488
REMARK  192  A    between atoms: _488  and  _489
REMARK  193  A    between atoms: _493  and  _494
REMARK  194  A    between atoms: _499  and  _501
REMARK  195  A    between atoms: _501  and  _502
REMARK  196  A    between atoms: _505  and  _507
REMARK  197  A    between atoms: _507  and  _508
REMARK  198  A    between atoms: _507  and  _510
REMARK  199  A    between atoms: _510  and  _511
REMARK  200  A    between atoms: _514  and  _516
REMARK  201  A    between atoms: _516  and  _517
REMARK  202  A    between atoms: _516  and  _519
REMARK  203  A    between atoms: _519  and  _520
REMARK  204  A    between atoms: _530  and  _532
REMARK  205  A    between atoms: _532  and  _533
REMARK  206  A    between atoms: _532  and  _535
REMARK  207  A    between atoms: _535  and  _536
REMARK  208  A    between atoms: _536  and  _537
REMARK  209  A    between atoms: _539  and  _541
REMARK  210  A    between atoms: _541  and  _542
REMARK  211  A    between atoms: _541  and  _544
REMARK  212  A    between atoms: _544  and  _545
REMARK  213  A    between atoms: _548  and  _550
REMARK  214  A    between atoms: _550  and  _551
REMARK  215  A    between atoms: _550  and  _553
REMARK  216  A    between atoms: _553  and  _554
REMARK  217  A    between atoms: _557  and  _559
REMARK  218  A    between atoms: _559  and  _560
REMARK  219  A    between atoms: _563  and  _565
REMARK  220  A    between atoms: _565  and  _566
REMARK  221  A    between atoms: _568  and  _570
REMARK  222  A    between atoms: _570  and  _571
REMARK  223  A    between atoms: _570  and  _573
REMARK  224  A    between atoms: _573  and  _574
REMARK  225  A    between atoms: _579  and  _581
REMARK  226  A    between atoms: _581  and  _582
REMARK  227  A    between atoms: _581  and  _584
REMARK  228  A    between atoms: _584  and  _585
REMARK                            x       y       z     vdW  Elec       q    Type
REMARK                         _______ _______ _______ _____ _____    ______ ____
ROOT
ATOM      1  CA  THR A   4     -21.924  22.319 -24.768  0.00  0.00    +0.176 C 
ENDROOT
BRANCH   1   4
ATOM      2  C   SER A   3     -24.344  22.500 -24.506  0.00  0.00    +0.243 C 
ATOM      3  O   SER A   3     -24.263  23.506 -23.797  0.00  0.00    -0.273 OA
ATOM      4  N   THR A   4     -23.285  21.857 -24.986  0.00  0.00    -0.295 N 
ATOM      5  H   THR A   4     -23.436  20.989 -25.539  0.00  0.00    +0.150 HD
BRANCH   2   6
ATOM      6  CA  SER A   3     -25.698  21.892 -24.862  0.00  0.00    +0.178 C 
BRANCH   6   9
ATOM      7  C   PHE A   2     -25.380  20.121 -23.204  0.00  0.00    +0.241 C 
ATOM      8  O   PHE A   2     -25.017  20.916 -22.341  0.00  0.00    -0.273 OA
ATOM      9  N   SER A   3     -25.781  20.499 -24.417  0.00  0.00    -0.295 N 
ATOM     10  H   SER A   3     -26.164  19.784 -25.067  0.00  0.00    +0.150 HD
BRANCH   7  11
ATOM     11  CA  PHE A   2     -25.379  18.626 -22.903  0.00  0.00    +0.153 C 
BRANCH  11  14
ATOM     12  C   ALA A   1     -27.348  17.582 -23.894  0.00  0.00    +0.238 C 
ATOM     13  O   ALA A   1     -28.108  18.101 -23.078  0.00  0.00    -0.274 OA
ATOM     14  N   PHE A   2     -26.040  17.822 -23.925  0.00  0.00    -0.297 N 
ATOM     15  H   PHE A   2     -25.472  17.425 -24.700  0.00  0.00    +0.150 HD
BRANCH  12  16
ATOM     16  CA  ALA A   1     -27.877  16.617 -24.947  0.00  0.00    +0.145 C 
ATOM     17  CB  ALA A   1     -27.453  15.198 -24.613  0.00  0.00    +0.028 C 
BRANCH  16  18
ATOM     18  N   ALA A   1     -27.406  16.984 -26.277  0.00  0.00    -0.238 NA
ATOM     19  H   ALA A   1     -26.775  16.336 -26.790  0.00  0.00    +0.142 HD
ENDBRANCH  16  18
ENDBRANCH  12  16
ENDBRANCH  11  14
BRANCH  11  20
ATOM     20  CB  PHE A   2     -23.933  18.160 -22.724  0.00  0.00    +0.055 C 
BRANCH  20  21
ATOM     21  CG  PHE A   2     -23.793  16.906 -21.909  0.00  0.00    -0.020 A 
ATOM     22  CD2 PHE A   2     -23.768  16.965 -20.526  0.00  0.00    -0.004 A 
ATOM     23  CE2 PHE A   2     -23.633  15.817 -19.772  0.00  0.00    -0.000 A 
ATOM     24  CZ  PHE A   2     -23.522  14.592 -20.397  0.00  0.00    -0.000 A 
ATOM     25  CE1 PHE A   2     -23.544  14.519 -21.776  0.00  0.00    -0.000 A 
ATOM     26  CD1 PHE A   2     -23.680  15.671 -22.525  0.00  0.00    -0.004 A 
ENDBRANCH  20  21
ENDBRANCH  11  20
ENDBRANCH   7  11
ENDBRANCH   6   9
BRANCH   6  27
ATOM     27  CB  SER A   3     -26.833  22.728 -24.265  0.00  0.00    +0.166 C 
BRANCH  27  28
ATOM     28  OG  SER A   3     -28.080  22.385 -24.846  0.00  0.00    -0.380 OA
ATOM     29  H   SER A   3     -28.794  22.939 -24.443  0.00  0.00    +0.211 HD
ENDBRANCH  27  28
ENDBRANCH   6  27
ENDBRANCH   2   6
ENDBRANCH   1   4
BRANCH   1  30
ATOM     30  C   THR A   4     -21.138  22.115 -26.058  0.00  0.00    +0.243 C 
ATOM     31  N   ILE A   5     -19.832  22.351 -26.006  0.00  0.00    -0.297 N 
ATOM     32  H   ILE A   5     -19.407  22.673 -25.113  0.00  0.00    +0.150 HD
ATOM     33  O   THR A   4     -21.711  21.751 -27.088  0.00  0.00    -0.273 OA
BRANCH  31  34
ATOM     34  CA  ILE A   5     -18.984  22.168 -27.175  0.00  0.00    +0.149 C 
BRANCH  34  35
ATOM     35  C   ILE A   5     -18.392  20.759 -27.165  0.00  0.00    +0.244 C 
ATOM     36  O   ILE A   5     -17.689  20.387 -26.223  0.00  0.00    -0.273 OA
ATOM     37  N   PRO A   6     -18.670  19.964 -28.211  0.00  0.00    -0.272 N 
ATOM     38  CA  PRO A   6     -18.049  18.638 -28.256  0.00  0.00    +0.152 C 
ATOM     39  CB  PRO A   6     -18.812  17.936 -29.381  0.00  0.00    +0.031 C 
ATOM     40  CG  PRO A   6     -19.238  19.034 -30.281  0.00  0.00    +0.024 C 
ATOM     41  CD  PRO A   6     -19.519  20.215 -29.391  0.00  0.00    +0.094 C 
BRANCH  38  42
ATOM     42  C   PRO A   6     -16.563  18.737 -28.590  0.00  0.00    +0.241 C 
ATOM     43  N   ALA A   7     -15.783  17.747 -28.172  0.00  0.00    -0.298 N 
ATOM     44  H   ALA A   7     -16.201  16.959 -27.638  0.00  0.00    +0.150 HD
ATOM     45  O   PRO A   6     -16.137  19.707 -29.217  0.00  0.00    -0.273 OA
BRANCH  43  46
ATOM     46  CA  ALA A   7     -14.352  17.745 -28.448  0.00  0.00    +0.137 C 
ATOM     47  CB  ALA A   7     -13.657  16.682 -27.615  0.00  0.00    +0.030 C 
BRANCH  46  48
ATOM     48  C   ALA A   7     -14.098  17.511 -29.935  0.00  0.00    +0.227 C 
ATOM     49  O   ALA A   7     -13.217  18.131 -30.532  0.00  0.00    -0.286 OA
ENDBRANCH  46  48
ENDBRANCH  43  46
ENDBRANCH  38  42
ENDBRANCH  34  35
BRANCH  34  50
ATOM     50  CB  ILE A   5     -17.833  23.192 -27.212  0.00  0.00    +0.027 C 
ATOM     51  CG2 ILE A   5     -17.035  23.050 -28.507  0.00  0.00    +0.002 C 
BRANCH  50  52
ATOM     52  CG1 ILE A   5     -18.372  24.619 -27.068  0.00  0.00    +0.002 C 
ATOM     53  CD1 ILE A   5     -17.301  25.652 -26.815  0.00  0.00    +0.000 C 
ENDBRANCH  50  52
ENDBRANCH  34  50
ENDBRANCH  31  34
ENDBRANCH   1  30
BRANCH   1  54
ATOM     54  CB  THR A   4     -21.247  21.556 -23.605  0.00  0.00    +0.137 C 
ATOM     55  CG2 THR A   4     -21.065  20.077 -23.948  0.00  0.00    +0.034 C 
BRANCH  54  56
ATOM     56  OG1 THR A   4     -19.973  22.144 -23.315  0.00  0.00    -0.382 OA
ATOM     57  HG1 THR A   4     -19.545  21.651 -22.570  0.00  0.00    +0.210 HD
ENDBRANCH  54  56
ENDBRANCH   1  54
TORSDOF 21
REMARK  Name = ../refined-set-2016/4c1u/4c1u_pocket.pdb
REMARK  228 active torsions:
REMARK  status: ('A' for Active; 'I' for Inactive)
REMARK    1  A    between atoms: _1  and  _3
REMARK    2  A    between atoms: _3  and  _4
REMARK    3  A    between atoms: _3  and  _6
REMARK    4  A    between atoms: _6  and  _7
REMARK    5  A    between atoms: _12  and  _14
REMARK    6  A    between atoms: _14  and  _15
REMARK    7  A    between atoms: _14  and  _17
REMARK    8  A    between atoms: _17  and  _18
REMARK    9  A    between atoms: _23  and  _25
REMARK   10  A    between atoms: _25  and  _26
REMARK   11  A    between atoms: _29  and  _31
REMARK   12  A    between atoms: _31  and  _32
REMARK   13  A    between atoms: _31  and  _34
REMARK   14  A    between atoms: _34  and  _35
REMARK   15  A    between atoms: _37  and  _39
REMARK   16  A    between atoms: _39  and  _40
REMARK   17  A    between atoms: _43  and  _45
REMARK   18  A    between atoms: _45  and  _46
REMARK   19  A    between atoms: _48  and  _50
REMARK   20  A    between atoms: _50  and  _51
REMARK   21  A    between atoms: _50  and  _53
REMARK   22  A    between atoms: _53  and  _54
REMARK   23  A    between atoms: _54  and  _55
REMARK   24  A    between atoms: _55  and  _56
REMARK   25  A    between atoms: _65  and  _67
REMARK   26  A    between atoms: _67  and  _68
REMARK   27  A    between atoms: _67  and  _70
REMARK   28  A    between atoms: _70  and  _71
REMARK   29  A    between atoms: _81  and  _83
REMARK   30  A    between atoms: _83  and  _84
REMARK   31  A    between atoms: _83  and  _86
REMARK   32  A    between atoms: _86  and  _87
REMARK   33  A    between atoms: _90  and  _92
REMARK   34  A    between atoms: _92  and  _93
REMARK   35  A    between atoms: _92  and  _95
REMARK   36  A    between atoms: _95  and  _96
REMARK   37  A    between atoms: _96  and  _97
REMARK   38  A    between atoms: _102  and  _104
REMARK   39  A    between atoms: _104  and  _105
REMARK   40  A    between atoms: _104  and  _107
REMARK   41  A    between atoms: _107  and  _108
REMARK   42  A    between atoms: _113  and  _115
REMARK   43  A    between atoms: _115  and  _116
REMARK   44  A    between atoms: _115  and  _118
REMARK   45  A    between atoms: _118  and  _119
REMARK   46  A    between atoms: _119  and  _120
REMARK   47  A    between atoms: _123  and  _125
REMARK   48  A    between atoms: _125  and  _126
REMARK   49  A    between atoms: _125  and  _128
REMARK   50  A    between atoms: _128  and  _129
REMARK   51  A    between atoms: _135  and  _137
REMARK   52  A    between atoms: _137  and  _138
REMARK   53  A    between atoms: _141  and  _143
REMARK   54  A    between atoms: _143  and  _144
REMARK   55  A    between atoms: _143  and  _146
REMARK   56  A    between atoms: _146  and  _147
REMARK   57  A    between atoms: _147  and  _148
REMARK   58  A    between atoms: _150  and  _152
REMARK   59  A    between atoms: _152  and  _153
REMARK   60  A    between atoms: _152  and  _155
REMARK   61  A    between atoms: _155  and  _156
REMARK   62  A    between atoms: _158  and  _160
REMARK   63  A    between atoms: _160  and  _161
REMARK   64  A    between atoms: _160  and  _163
REMARK   65  A    between atoms: _163  and  _164
REMARK   66  A    between atoms: _167  and  _169
REMARK   67  A    between atoms: _169  and  _170
REMARK   68  A    between atoms: _169  and  _172
REMARK   69  A    between atoms: _172  and  _173
REMARK   70  A    between atoms: _173  and  _174
REMARK   71  A    between atoms: _174  and  _175
REMARK   72  A    between atoms: _175  and  _176
REMARK   73  A    between atoms: _180  and  _182
REMARK   74  A    between atoms: _182  and  _183
REMARK   75  A    between atoms: _182  and  _185
REMARK   76  A    between atoms: _188  and  _190
REMARK   77  A    between atoms: _190  and  _191
REMARK   78  A    between atoms: _190  and  _193
REMARK   79  A    between atoms: _193  and  _194
REMARK   80  A    between atoms: _196  and  _198
REMARK   81  A    between atoms: _198  and  _199
REMARK   82  A    between atoms: _198  and  _201
REMARK   83  A    between atoms: _204  and  _206
REMARK   84  A    between atoms: _206  and  _207
REMARK   85  A    between atoms: _206  and  _209
REMARK   86  A    between atoms: _209  and  _210
REMARK   87  A    between atoms: _210  and  _211
REMARK   88  A    between atoms: _214  and  _216
REMARK   89  A    between atoms: _216  and  _217
REMARK   90  A    between atoms: _216  and  _219
REMARK   91  A    between atoms: _219  and  _220
REMARK   92  A    between atoms: _223  and  _225
REMARK   93  A    between atoms: _225  and  _226
REMARK   94  A    between atoms: _229  and  _231
REMARK   95  A    between atoms: _231  and  _232
REMARK   96  A    between atoms: _231  and  _234
REMARK   97  A    between atoms: _234  and  _235
REMARK   98  A    between atoms: _246  and  _247
REMARK   99  A    between atoms: _252  and  _254
REMARK  100  A    between atoms: _254  and  _255
REMARK  101  A    between atoms: _258  and  _260
REMARK  102  A    between atoms: _260  and  _261
REMARK  103  A    between atoms: _260  and  _263
REMARK  104  A    between atoms: _263  and  _264
REMARK  105  A    between atoms: _269  and  _271
REMARK  106  A    between atoms: _271  and  _272
REMARK  107  A    between atoms: _271  and  _274
REMARK  108  A    between atoms: _274  and  _275
REMARK  109  A    between atoms: _280  and  _281
REMARK  110  A    between atoms: _283  and  _285
REMARK  111  A    between atoms: _285  and  _286
REMARK  112  A    between atoms: _289  and  _291
REMARK  113  A    between atoms: _291  and  _292
REMARK  114  A    between atoms: _291  and  _294
REMARK  115  A    between atoms: _294  and  _295
REMARK  116  A    between atoms: _295  and  _296
REMARK  117  A    between atoms: _301  and  _303
REMARK  118  A    between atoms: _303  and  _304
REMARK  119  A    between atoms: _303  and  _306
REMARK  120  A    between atoms: _306  and  _307
REMARK  121  A    between atoms: _307  and  _308
REMARK  122  A    between atoms: _310  and  _312
REMARK  123  A    between atoms: _312  and  _313
REMARK  124  A    between atoms: _315  and  _317
REMARK  125  A    between atoms: _317  and  _318
REMARK  126  A    between atoms: _321  and  _323
REMARK  127  A    between atoms: _323  and  _324
REMARK  128  A    between atoms: _323  and  _326
REMARK  129  A    between atoms: _326  and  _327
REMARK  130  A    between atoms: _337  and  _339
REMARK  131  A    between atoms: _339  and  _340
REMARK  132  A    between atoms: _339  and  _342
REMARK  133  A    between atoms: _342  and  _343
REMARK  134  A    between atoms: _343  and  _344
REMARK  135  A    between atoms: _347  and  _349
REMARK  136  A    between atoms: _349  and  _350
REMARK  137  A    between atoms: _352  and  _354
REMARK  138  A    between atoms: _354  and  _355
REMARK  139  A    between atoms: _354  and  _357
REMARK  140  A    between atoms: _360  and  _362
REMARK  141  A    between atoms: _362  and  _363
REMARK  142  A    between atoms: _362  and  _365
REMARK  143  A    between atoms: _365  and  _366
REMARK  144  A    between atoms: _366  and  _367
REMARK  145  A    between atoms: _369  and  _371
REMARK  146  A    between atoms: _371  and  _372
REMARK  147  A    between atoms: _374  and  _376
REMARK  148  A    between atoms: _376  and  _377
REMARK  149  A    between atoms: _379  and  _381
REMARK  150  A    between atoms: _381  and  _382
REMARK  151  A    between atoms: _381  and  _384
REMARK  152  A    between atoms: _387  and  _389
REMARK  153  A    between atoms: _389  and  _390
REMARK  154  A    between atoms: _389  and  _392
REMARK  155  A    between atoms: _392  and  _393
REMARK  156  A    between atoms: _396  and  _398
REMARK  157  A    between atoms: _398  and  _399
REMARK  158  A    between atoms: _398  and  _401
REMARK  159  A    between atoms: _401  and  _402
REMARK  160  A    between atoms: _407  and  _408
REMARK  161  A    between atoms: _410  and  _412
REMARK  162  A    between atoms: _412  and  _413
REMARK  163  A    between atoms: _412  and  _415
REMARK  164  A    between atoms: _415  and  _416
REMARK  165  A    between atoms: _422  and  _424
REMARK  166  A    between atoms: _424  and  _425
REMARK  167  A    between atoms: _424  and  _427
REMARK  168  A    between atoms: _427  and  _428
REMARK  169  A    between atoms: _428  and  _429
REMARK  170  A    between atoms: _434  and  _436
REMARK  171  A    between atoms: _436  and  _437
REMARK  172  A    between atoms: _436  and  _439
REMARK  173  A    between atoms: _439  and  _440
REMARK  174  A    between atoms: _445  and  _446
REMARK  175  A    between atoms: _448  and  _450
REMARK  176  A    between atoms: _450  and  _451
REMARK  177  A    between atoms: _454  and  _456
REMARK  178  A    between atoms: _456  and  _457
REMARK  179  A    between atoms: _456  and  _459
REMARK  180  A    between atoms: _459  and  _460
REMARK  181  A    between atoms: _466  and  _468
REMARK  182  A    between atoms: _468  and  _469
REMARK  183  A    between atoms: _468  and  _471
REMARK  184  A    between atoms: _471  and  _472
REMARK  185  A    between atoms: _474  and  _476
REMARK  186  A    between atoms: _476  and  _477
REMARK  187  A    between atoms: _476  and  _479
REMARK  188  A    between atoms: _479  and  _480
REMARK  189  A    between atoms: _483  and  _485
REMARK  190  A    between atoms: _485  and  _486
REMARK  191  A    between atoms: _485  and  _488
REMARK  192  A    between atoms: _488  and  _489
REMARK  193  A    between atoms: _493  and  _494
REMARK  194  A    between atoms: _499  and  _501
REMARK  195  A    between atoms: _501  and  _502
REMARK  196  A    between atoms: _505  and  _507
REMARK  197  A    between atoms: _507  and  _508
REMARK  198  A    between atoms: _507  and  _510
REMARK  199  A    between atoms: _510  and  _511
REMARK  200  A    between atoms: _514  and  _516
REMARK  201  A    between atoms: _516  and  _517
REMARK  202  A    between atoms: _516  and  _519
REMARK  203  A    between atoms: _519  and  _520
REMARK  204  A    between atoms: _530  and  _532
REMARK  205  A    between atoms: _532  and  _533
REMARK  206  A    between atoms: _532  and  _535
REMARK  207  A    between atoms: _535  and  _536
REMARK  208  A    between atoms: _536  and  _537
REMARK  209  A    between atoms: _539  and  _541
REMARK  210  A    between atoms: _541  and  _542
REMARK  211  A    between atoms: _541  and  _544
REMARK  212  A    between atoms: _544  and  _545
REMARK  213  A    between atoms: _548  and  _550
REMARK  214  A    between atoms: _550  and  _551
REMARK  215  A    between atoms: _550  and  _553
REMARK  216  A    between atoms: _553  and  _554
REMARK  217  A    between atoms: _557  and  _559
REMARK  218  A    between atoms: _559  and  _560
REMARK  219  A    between atoms: _563  and  _565
REMARK  220  A    between atoms: _565  and  _566
REMARK  221  A    between atoms: _568  and  _570
REMARK  222  A    between atoms: _570  and  _571
REMARK  223  A    between atoms: _570  and  _573
REMARK  224  A    between atoms: _573  and  _574
REMARK  225  A    between atoms: _579  and  _581
REMARK  226  A    between atoms: _581  and  _582
REMARK  227  A    between atoms: _581  and  _584
REMARK  228  A    between atoms: _584  and  _585
REMARK                            x       y       z     vdW  Elec       q    Type
REMARK                         _______ _______ _______ _____ _____    ______ ____
ROOT
ATOM      1  CA  MET A   3      -6.042  26.191 -12.047  0.00  0.00    +0.149 C 
ENDROOT
BRANCH   1   3
ATOM      2  C   TRP A   2      -7.481  24.967 -13.588  0.00  0.00    +0.241 C 
ATOM      3  N   MET A   3      -7.223  26.077 -12.901  0.00  0.00    -0.297 N 
ATOM      4  H   MET A   3      -7.877  26.882 -12.973  0.00  0.00    +0.150 HD
ATOM      5  O   TRP A   2      -6.843  23.922 -13.447  0.00  0.00    -0.273 OA
BRANCH   2   6
ATOM      6  CA  TRP A   2      -8.622  25.033 -14.592  0.00  0.00    +0.153 C 
BRANCH   6   8
ATOM      7  C   LEU A   1      -7.009  24.827 -16.409  0.00  0.00    +0.238 C 
ATOM      8  N   TRP A   2      -8.168  24.469 -15.861  0.00  0.00    -0.297 N 
ATOM      9  H   TRP A   2      -8.765  23.771 -16.348  0.00  0.00    +0.150 HD
ATOM     10  O   LEU A   1      -6.287  25.709 -15.941  0.00  0.00    -0.274 OA
BRANCH   7  11
ATOM     11  CA  LEU A   1      -6.601  24.105 -17.687  0.00  0.00    +0.145 C 
BRANCH  11  12
ATOM     12  N   LEU A   1      -5.578  24.888 -18.361  0.00  0.00    -0.238 NA
ATOM     13  H   LEU A   1      -4.583  24.590 -18.302  0.00  0.00    +0.142 HD
ENDBRANCH  11  12
BRANCH  11  14
ATOM     14  CB  LEU A   1      -6.091  22.696 -17.375  0.00  0.00    +0.026 C 
BRANCH  14  15
ATOM     15  CG  LEU A   1      -5.751  21.823 -18.585  0.00  0.00    +0.002 C 
ATOM     16  CD2 LEU A   1      -5.284  20.450 -18.128  0.00  0.00    +0.000 C 
ATOM     17  CD1 LEU A   1      -6.940  21.694 -19.536  0.00  0.00    +0.000 C 
ENDBRANCH  14  15
ENDBRANCH  11  14
ENDBRANCH   7  11
ENDBRANCH   6   8
BRANCH   6  18
ATOM     18  CB  TRP A   2      -9.817  24.256 -14.041  0.00  0.00    +0.057 C 
BRANCH  18  19
ATOM     19  CG  TRP A   2     -11.012  24.217 -14.941  0.00  0.00    -0.002 A 
ATOM     20  CD1 TRP A   2     -11.640  23.102 -15.418  0.00  0.00    +0.068 A 
ATOM     21  NE1 TRP A   2     -12.704  23.460 -16.210  0.00  0.00    -0.352 N 
ATOM     22  CE2 TRP A   2     -12.780  24.827 -16.258  0.00  0.00    +0.056 A 
ATOM     23  CZ2 TRP A   2     -13.686  25.653 -16.925  0.00  0.00    +0.017 A 
ATOM     24  CH2 TRP A   2     -13.522  27.004 -16.793  0.00  0.00    +0.001 A 
ATOM     25  CZ3 TRP A   2     -12.487  27.543 -16.018  0.00  0.00    +0.000 A 
ATOM     26  CE3 TRP A   2     -11.588  26.726 -15.353  0.00  0.00    +0.001 A 
ATOM     27  HE1 TRP A   2     -13.347  22.801 -16.694  0.00  0.00    +0.166 HD
ATOM     28  CD2 TRP A   2     -11.732  25.338 -15.470  0.00  0.00    +0.013 A 
ENDBRANCH  18  19
ENDBRANCH   6  18
ENDBRANCH   2   6
ENDBRANCH   1   3
BRANCH   1  29
ATOM     29  C   MET A   3      -5.960  25.093 -10.992  0.00  0.00    +0.241 C 
ATOM     30  N   ASP A   4      -7.080  24.760 -10.356  0.00  0.00    -0.297 N 
ATOM     31  H   ASP A   4      -7.979  25.221 -10.601  0.00  0.00    +0.150 HD
ATOM     32  O   MET A   3      -4.880  24.549 -10.753  0.00  0.00    -0.273 OA
BRANCH  30  33
ATOM     33  CA  ASP A   4      -7.036  23.741  -9.311  0.00  0.00    +0.160 C 
BRANCH  33  34
ATOM     34  C   ASP A   4      -6.683  22.374  -9.888  0.00  0.00    +0.241 C 
ATOM     35  O   ASP A   4      -5.905  21.631  -9.288  0.00  0.00    -0.273 OA
ATOM     36  N   THR A   5      -7.224  22.053 -11.060  0.00  0.00    -0.295 N 
ATOM     37  H   THR A   5      -7.887  22.711 -11.517  0.00  0.00    +0.150 HD
BRANCH  36  38
ATOM     38  CA  THR A   5      -6.897  20.786 -11.713  0.00  0.00    +0.176 C 
BRANCH  38  39
ATOM     39  C   THR A   5      -5.443  20.788 -12.188  0.00  0.00    +0.243 C 
ATOM     40  O   THR A   5      -4.773  19.756 -12.168  0.00  0.00    -0.273 OA
ATOM     41  N   ALA A   6      -4.960  21.951 -12.612  0.00  0.00    -0.298 N 
ATOM     42  H   ALA A   6      -5.580  22.786 -12.618  0.00  0.00    +0.150 HD
BRANCH  41  43
ATOM     43  CA  ALA A   6      -3.582  22.085 -13.069  0.00  0.00    +0.137 C 
ATOM     44  CB  ALA A   6      -3.388  23.423 -13.769  0.00  0.00    +0.030 C 
BRANCH  43  45
ATOM     45  C   ALA A   6      -2.587  21.944 -11.915  0.00  0.00    +0.227 C 
ATOM     46  O   ALA A   6      -1.447  21.525 -12.118  0.00  0.00    -0.286 OA
ENDBRANCH  43  45
ENDBRANCH  41  43
ENDBRANCH  38  39
BRANCH  38  47
ATOM     47  CB  THR A   5      -7.821  20.484 -12.916  0.00  0.00    +0.137 C 
ATOM     48  CG2 THR A   5      -9.290  20.631 -12.526  0.00  0.00    +0.034 C 
BRANCH  47  49
ATOM     49  OG1 THR A   5      -7.515  21.366 -14.004  0.00  0.00    -0.382 OA
ATOM     50  HG1 THR A   5      -7.651  22.303 -13.716  0.00  0.00    +0.210 HD
ENDBRANCH  47  49
ENDBRANCH  38  47
ENDBRANCH  36  38
ENDBRANCH  33  34
BRANCH  33  51
ATOM     51  CB  ASP A   4      -8.331  23.688  -8.489  0.00  0.00    +0.143 C 
BRANCH  51  52
ATOM     52  CG  ASP A   4      -9.564  23.391  -9.323  0.00  0.00    +0.367 C 
ATOM     53  OD2 ASP A   4     -10.549  22.896  -8.736  0.00  0.00    -0.246 OA
ATOM     54  OD1 ASP A   4      -9.568  23.665 -10.541  0.00  0.00    -0.246 OA
ENDBRANCH  51  52
ENDBRANCH  33  51
ENDBRANCH  30  33
ENDBRANCH   1  29
BRANCH   1  55
ATOM     55  CB  MET A   3      -5.984  27.564 -11.369  0.00  0.00    +0.041 C 
BRANCH  55  56
ATOM     56  CG  MET A   3      -4.837  27.702 -10.368  0.00  0.00    +0.060 C 
BRANCH  56  57
ATOM     57  SD  MET A   3      -4.679  29.344  -9.638  0.00  0.00    -0.139 S 
ATOM     58  CE  MET A   3      -4.208  30.312 -11.071  0.00  0.00    +0.069 C 
ENDBRANCH  56  57
ENDBRANCH  55  56
ENDBRANCH   1  55
TORSDOF 23
REMARK  Name = ../refined-set-2016/4c1u/4c1u_pocket.pdb
REMARK  228 active torsions:
REMARK  status: ('A' for Active; 'I' for Inactive)
REMARK    1  A    between atoms: _1  and  _3
REMARK    2  A    between atoms: _3  and  _4
REMARK    3  A    between atoms: _3  and  _6
REMARK    4  A    between atoms: _6  and  _7
REMARK    5  A    between atoms: _12  and  _14
REMARK    6  A    between atoms: _14  and  _15
REMARK    7  A    between atoms: _14  and  _17
REMARK    8  A    between atoms: _17  and  _18
REMARK    9  A    between atoms: _23  and  _25
REMARK   10  A    between atoms: _25  and  _26
REMARK   11  A    between atoms: _29  and  _31
REMARK   12  A    between atoms: _31  and  _32
REMARK   13  A    between atoms: _31  and  _34
REMARK   14  A    between atoms: _34  and  _35
REMARK   15  A    between atoms: _37  and  _39
REMARK   16  A    between atoms: _39  and  _40
REMARK   17  A    between atoms: _43  and  _45
REMARK   18  A    between atoms: _45  and  _46
REMARK   19  A    between atoms: _48  and  _50
REMARK   20  A    between atoms: _50  and  _51
REMARK   21  A    between atoms: _50  and  _53
REMARK   22  A    between atoms: _53  and  _54
REMARK   23  A    between atoms: _54  and  _55
REMARK   24  A    between atoms: _55  and  _56
REMARK   25  A    between atoms: _65  and  _67
REMARK   26  A    between atoms: _67  and  _68
REMARK   27  A    between atoms: _67  and  _70
REMARK   28  A    between atoms: _70  and  _71
REMARK   29  A    between atoms: _81  and  _83
REMARK   30  A    between atoms: _83  and  _84
REMARK   31  A    between atoms: _83  and  _86
REMARK   32  A    between atoms: _86  and  _87
REMARK   33  A    between atoms: _90  and  _92
REMARK   34  A    between atoms: _92  and  _93
REMARK   35  A    between atoms: _92  and  _95
REMARK   36  A    between atoms: _95  and  _96
REMARK   37  A    between atoms: _96  and  _97
REMARK   38  A    between atoms: _102  and  _104
REMARK   39  A    between atoms: _104  and  _105
REMARK   40  A    between atoms: _104  and  _107
REMARK   41  A    between atoms: _107  and  _108
REMARK   42  A    between atoms: _113  and  _115
REMARK   43  A    between atoms: _115  and  _116
REMARK   44  A    between atoms: _115  and  _118
REMARK   45  A    between atoms: _118  and  _119
REMARK   46  A    between atoms: _119  and  _120
REMARK   47  A    between atoms: _123  and  _125
REMARK   48  A    between atoms: _125  and  _126
REMARK   49  A    between atoms: _125  and  _128
REMARK   50  A    between atoms: _128  and  _129
REMARK   51  A    between atoms: _135  and  _137
REMARK   52  A    between atoms: _137  and  _138
REMARK   53  A    between atoms: _141  and  _143
REMARK   54  A    between atoms: _143  and  _144
REMARK   55  A    between atoms: _143  and  _146
REMARK   56  A    between atoms: _146  and  _147
REMARK   57  A    between atoms: _147  and  _148
REMARK   58  A    between atoms: _150  and  _152
REMARK   59  A    between atoms: _152  and  _153
REMARK   60  A    between atoms: _152  and  _155
REMARK   61  A    between atoms: _155  and  _156
REMARK   62  A    between atoms: _158  and  _160
REMARK   63  A    between atoms: _160  and  _161
REMARK   64  A    between atoms: _160  and  _163
REMARK   65  A    between atoms: _163  and  _164
REMARK   66  A    between atoms: _167  and  _169
REMARK   67  A    between atoms: _169  and  _170
REMARK   68  A    between atoms: _169  and  _172
REMARK   69  A    between atoms: _172  and  _173
REMARK   70  A    between atoms: _173  and  _174
REMARK   71  A    between atoms: _174  and  _175
REMARK   72  A    between atoms: _175  and  _176
REMARK   73  A    between atoms: _180  and  _182
REMARK   74  A    between atoms: _182  and  _183
REMARK   75  A    between atoms: _182  and  _185
REMARK   76  A    between atoms: _188  and  _190
REMARK   77  A    between atoms: _190  and  _191
REMARK   78  A    between atoms: _190  and  _193
REMARK   79  A    between atoms: _193  and  _194
REMARK   80  A    between atoms: _196  and  _198
REMARK   81  A    between atoms: _198  and  _199
REMARK   82  A    between atoms: _198  and  _201
REMARK   83  A    between atoms: _204  and  _206
REMARK   84  A    between atoms: _206  and  _207
REMARK   85  A    between atoms: _206  and  _209
REMARK   86  A    between atoms: _209  and  _210
REMARK   87  A    between atoms: _210  and  _211
REMARK   88  A    between atoms: _214  and  _216
REMARK   89  A    between atoms: _216  and  _217
REMARK   90  A    between atoms: _216  and  _219
REMARK   91  A    between atoms: _219  and  _220
REMARK   92  A    between atoms: _223  and  _225
REMARK   93  A    between atoms: _225  and  _226
REMARK   94  A    between atoms: _229  and  _231
REMARK   95  A    between atoms: _231  and  _232
REMARK   96  A    between atoms: _231  and  _234
REMARK   97  A    between atoms: _234  and  _235
REMARK   98  A    between atoms: _246  and  _247
REMARK   99  A    between atoms: _252  and  _254
REMARK  100  A    between atoms: _254  and  _255
REMARK  101  A    between atoms: _258  and  _260
REMARK  102  A    between atoms: _260  and  _261
REMARK  103  A    between atoms: _260  and  _263
REMARK  104  A    between atoms: _263  and  _264
REMARK  105  A    between atoms: _269  and  _271
REMARK  106  A    between atoms: _271  and  _272
REMARK  107  A    between atoms: _271  and  _274
REMARK  108  A    between atoms: _274  and  _275
REMARK  109  A    between atoms: _280  and  _281
REMARK  110  A    between atoms: _283  and  _285
REMARK  111  A    between atoms: _285  and  _286
REMARK  112  A    between atoms: _289  and  _291
REMARK  113  A    between atoms: _291  and  _292
REMARK  114  A    between atoms: _291  and  _294
REMARK  115  A    between atoms: _294  and  _295
REMARK  116  A    between atoms: _295  and  _296
REMARK  117  A    between atoms: _301  and  _303
REMARK  118  A    between atoms: _303  and  _304
REMARK  119  A    between atoms: _303  and  _306
REMARK  120  A    between atoms: _306  and  _307
REMARK  121  A    between atoms: _307  and  _308
REMARK  122  A    between atoms: _310  and  _312
REMARK  123  A    between atoms: _312  and  _313
REMARK  124  A    between atoms: _315  and  _317
REMARK  125  A    between atoms: _317  and  _318
REMARK  126  A    between atoms: _321  and  _323
REMARK  127  A    between atoms: _323  and  _324
REMARK  128  A    between atoms: _323  and  _326
REMARK  129  A    between atoms: _326  and  _327
REMARK  130  A    between atoms: _337  and  _339
REMARK  131  A    between atoms: _339  and  _340
REMARK  132  A    between atoms: _339  and  _342
REMARK  133  A    between atoms: _342  and  _343
REMARK  134  A    between atoms: _343  and  _344
REMARK  135  A    between atoms: _347  and  _349
REMARK  136  A    between atoms: _349  and  _350
REMARK  137  A    between atoms: _352  and  _354
REMARK  138  A    between atoms: _354  and  _355
REMARK  139  A    between atoms: _354  and  _357
REMARK  140  A    between atoms: _360  and  _362
REMARK  141  A    between atoms: _362  and  _363
REMARK  142  A    between atoms: _362  and  _365
REMARK  143  A    between atoms: _365  and  _366
REMARK  144  A    between atoms: _366  and  _367
REMARK  145  A    between atoms: _369  and  _371
REMARK  146  A    between atoms: _371  and  _372
REMARK  147  A    between atoms: _374  and  _376
REMARK  148  A    between atoms: _376  and  _377
REMARK  149  A    between atoms: _379  and  _381
REMARK  150  A    between atoms: _381  and  _382
REMARK  151  A    between atoms: _381  and  _384
REMARK  152  A    between atoms: _387  and  _389
REMARK  153  A    between atoms: _389  and  _390
REMARK  154  A    between atoms: _389  and  _392
REMARK  155  A    between atoms: _392  and  _393
REMARK  156  A    between atoms: _396  and  _398
REMARK  157  A    between atoms: _398  and  _399
REMARK  158  A    between atoms: _398  and  _401
REMARK  159  A    between atoms: _401  and  _402
REMARK  160  A    between atoms: _407  and  _408
REMARK  161  A    between atoms: _410  and  _412
REMARK  162  A    between atoms: _412  and  _413
REMARK  163  A    between atoms: _412  and  _415
REMARK  164  A    between atoms: _415  and  _416
REMARK  165  A    between atoms: _422  and  _424
REMARK  166  A    between atoms: _424  and  _425
REMARK  167  A    between atoms: _424  and  _427
REMARK  168  A    between atoms: _427  and  _428
REMARK  169  A    between atoms: _428  and  _429
REMARK  170  A    between atoms: _434  and  _436
REMARK  171  A    between atoms: _436  and  _437
REMARK  172  A    between atoms: _436  and  _439
REMARK  173  A    between atoms: _439  and  _440
REMARK  174  A    between atoms: _445  and  _446
REMARK  175  A    between atoms: _448  and  _450
REMARK  176  A    between atoms: _450  and  _451
REMARK  177  A    between atoms: _454  and  _456
REMARK  178  A    between atoms: _456  and  _457
REMARK  179  A    between atoms: _456  and  _459
REMARK  180  A    between atoms: _459  and  _460
REMARK  181  A    between atoms: _466  and  _468
REMARK  182  A    between atoms: _468  and  _469
REMARK  183  A    between atoms: _468  and  _471
REMARK  184  A    between atoms: _471  and  _472
REMARK  185  A    between atoms: _474  and  _476
REMARK  186  A    between atoms: _476  and  _477
REMARK  187  A    between atoms: _476  and  _479
REMARK  188  A    between atoms: _479  and  _480
REMARK  189  A    between atoms: _483  and  _485
REMARK  190  A    between atoms: _485  and  _486
REMARK  191  A    between atoms: _485  and  _488
REMARK  192  A    between atoms: _488  and  _489
REMARK  193  A    between atoms: _493  and  _494
REMARK  194  A    between atoms: _499  and  _501
REMARK  195  A    between atoms: _501  and  _502
REMARK  196  A    between atoms: _505  and  _507
REMARK  197  A    between atoms: _507  and  _508
REMARK  198  A    between atoms: _507  and  _510
REMARK  199  A    between atoms: _510  and  _511
REMARK  200  A    between atoms: _514  and  _516
REMARK  201  A    between atoms: _516  and  _517
REMARK  202  A    between atoms: _516  and  _519
REMARK  203  A    between atoms: _519  and  _520
REMARK  204  A    between atoms: _530  and  _532
REMARK  205  A    between atoms: _532  and  _533
REMARK  206  A    between atoms: _532  and  _535
REMARK  207  A    between atoms: _535  and  _536
REMARK  208  A    between atoms: _536  and  _537
REMARK  209  A    between atoms: _539  and  _541
REMARK  210  A    between atoms: _541  and  _542
REMARK  211  A    between atoms: _541  and  _544
REMARK  212  A    between atoms: _544  and  _545
REMARK  213  A    between atoms: _548  and  _550
REMARK  214  A    between atoms: _550  and  _551
REMARK  215  A    between atoms: _550  and  _553
REMARK  216  A    between atoms: _553  and  _554
REMARK  217  A    between atoms: _557  and  _559
REMARK  218  A    between atoms: _559  and  _560
REMARK  219  A    between atoms: _563  and  _565
REMARK  220  A    between atoms: _565  and  _566
REMARK  221  A    between atoms: _568  and  _570
REMARK  222  A    between atoms: _570  and  _571
REMARK  223  A    between atoms: _570  and  _573
REMARK  224  A    between atoms: _573  and  _574
REMARK  225  A    between atoms: _579  and  _581
REMARK  226  A    between atoms: _581  and  _582
REMARK  227  A    between atoms: _581  and  _584
REMARK  228  A    between atoms: _584  and  _585
REMARK                            x       y       z     vdW  Elec       q    Type
REMARK                         _______ _______ _______ _____ _____    ______ ____
ROOT
ATOM      1  CA  ASN A   2      -8.573  21.808  -2.680  0.00  0.00    +0.146 C 
ENDROOT
BRANCH   1   3
ATOM      2  C   GLY A   1      -7.422  22.833  -4.561  0.00  0.00    +0.240 C 
ATOM      3  N   ASN A   2      -7.563  21.802  -3.733  0.00  0.00    -0.298 N 
ATOM      4  H   ASN A   2      -6.941  20.975  -3.838  0.00  0.00    +0.150 HD
ATOM      5  O   GLY A   1      -8.127  23.841  -4.500  0.00  0.00    -0.274 OA
BRANCH   2   6
ATOM      6  CA  GLY A   1      -6.334  22.717  -5.610  0.00  0.00    +0.169 C 
BRANCH   6   7
ATOM      7  N   GLY A   1      -5.057  22.296  -5.065  0.00  0.00    -0.236 NA
ATOM      8  H   GLY A   1      -4.609  21.435  -5.438  0.00  0.00    +0.142 HD
ENDBRANCH   6   7
ENDBRANCH   2   6
ENDBRANCH   1   3
BRANCH   1   9
ATOM      9  C   ASN A   2      -8.259  22.836  -1.601  0.00  0.00    +0.227 C 
ATOM     10  O   ASN A   2      -9.163  23.463  -1.050  0.00  0.00    -0.286 OA
ENDBRANCH   1   9
BRANCH   1  11
ATOM     11  CB  ASN A   2      -8.713  20.421  -2.050  0.00  0.00    +0.112 C 
BRANCH  11  12
ATOM     12  CG  ASN A   2      -9.400  19.428  -2.970  0.00  0.00    +0.222 C 
ATOM     13  ND2 ASN A   2      -9.396  18.162  -2.577  0.00  0.00    -0.329 N 
ATOM     14 HD21 ASN A   2      -8.931  17.896  -1.686  0.00  0.00    +0.145 HD
ATOM     15 HD22 ASN A   2      -9.858  17.435  -3.160  0.00  0.00    +0.145 HD
ATOM     16  OD1 ASN A   2      -9.936  19.796  -4.016  0.00  0.00    -0.275 OA
ENDBRANCH  11  12
ENDBRANCH   1  11
TORSDOF 6
REMARK  Name = ../refined-set-2016/4c1u/4c1u_pocket.pdb
REMARK  228 active torsions:
REMARK  status: ('A' for Active; 'I' for Inactive)
REMARK    1  A    between atoms: _1  and  _3
REMARK    2  A    between atoms: _3  and  _4
REMARK    3  A    between atoms: _3  and  _6
REMARK    4  A    between atoms: _6  and  _7
REMARK    5  A    between atoms: _12  and  _14
REMARK    6  A    between atoms: _14  and  _15
REMARK    7  A    between atoms: _14  and  _17
REMARK    8  A    between atoms: _17  and  _18
REMARK    9  A    between atoms: _23  and  _25
REMARK   10  A    between atoms: _25  and  _26
REMARK   11  A    between atoms: _29  and  _31
REMARK   12  A    between atoms: _31  and  _32
REMARK   13  A    between atoms: _31  and  _34
REMARK   14  A    between atoms: _34  and  _35
REMARK   15  A    between atoms: _37  and  _39
REMARK   16  A    between atoms: _39  and  _40
REMARK   17  A    between atoms: _43  and  _45
REMARK   18  A    between atoms: _45  and  _46
REMARK   19  A    between atoms: _48  and  _50
REMARK   20  A    between atoms: _50  and  _51
REMARK   21  A    between atoms: _50  and  _53
REMARK   22  A    between atoms: _53  and  _54
REMARK   23  A    between atoms: _54  and  _55
REMARK   24  A    between atoms: _55  and  _56
REMARK   25  A    between atoms: _65  and  _67
REMARK   26  A    between atoms: _67  and  _68
REMARK   27  A    between atoms: _67  and  _70
REMARK   28  A    between atoms: _70  and  _71
REMARK   29  A    between atoms: _81  and  _83
REMARK   30  A    between atoms: _83  and  _84
REMARK   31  A    between atoms: _83  and  _86
REMARK   32  A    between atoms: _86  and  _87
REMARK   33  A    between atoms: _90  and  _92
REMARK   34  A    between atoms: _92  and  _93
REMARK   35  A    between atoms: _92  and  _95
REMARK   36  A    between atoms: _95  and  _96
REMARK   37  A    between atoms: _96  and  _97
REMARK   38  A    between atoms: _102  and  _104
REMARK   39  A    between atoms: _104  and  _105
REMARK   40  A    between atoms: _104  and  _107
REMARK   41  A    between atoms: _107  and  _108
REMARK   42  A    between atoms: _113  and  _115
REMARK   43  A    between atoms: _115  and  _116
REMARK   44  A    between atoms: _115  and  _118
REMARK   45  A    between atoms: _118  and  _119
REMARK   46  A    between atoms: _119  and  _120
REMARK   47  A    between atoms: _123  and  _125
REMARK   48  A    between atoms: _125  and  _126
REMARK   49  A    between atoms: _125  and  _128
REMARK   50  A    between atoms: _128  and  _129
REMARK   51  A    between atoms: _135  and  _137
REMARK   52  A    between atoms: _137  and  _138
REMARK   53  A    between atoms: _141  and  _143
REMARK   54  A    between atoms: _143  and  _144
REMARK   55  A    between atoms: _143  and  _146
REMARK   56  A    between atoms: _146  and  _147
REMARK   57  A    between atoms: _147  and  _148
REMARK   58  A    between atoms: _150  and  _152
REMARK   59  A    between atoms: _152  and  _153
REMARK   60  A    between atoms: _152  and  _155
REMARK   61  A    between atoms: _155  and  _156
REMARK   62  A    between atoms: _158  and  _160
REMARK   63  A    between atoms: _160  and  _161
REMARK   64  A    between atoms: _160  and  _163
REMARK   65  A    between atoms: _163  and  _164
REMARK   66  A    between atoms: _167  and  _169
REMARK   67  A    between atoms: _169  and  _170
REMARK   68  A    between atoms: _169  and  _172
REMARK   69  A    between atoms: _172  and  _173
REMARK   70  A    between atoms: _173  and  _174
REMARK   71  A    between atoms: _174  and  _175
REMARK   72  A    between atoms: _175  and  _176
REMARK   73  A    between atoms: _180  and  _182
REMARK   74  A    between atoms: _182  and  _183
REMARK   75  A    between atoms: _182  and  _185
REMARK   76  A    between atoms: _188  and  _190
REMARK   77  A    between atoms: _190  and  _191
REMARK   78  A    between atoms: _190  and  _193
REMARK   79  A    between atoms: _193  and  _194
REMARK   80  A    between atoms: _196  and  _198
REMARK   81  A    between atoms: _198  and  _199
REMARK   82  A    between atoms: _198  and  _201
REMARK   83  A    between atoms: _204  and  _206
REMARK   84  A    between atoms: _206  and  _207
REMARK   85  A    between atoms: _206  and  _209
REMARK   86  A    between atoms: _209  and  _210
REMARK   87  A    between atoms: _210  and  _211
REMARK   88  A    between atoms: _214  and  _216
REMARK   89  A    between atoms: _216  and  _217
REMARK   90  A    between atoms: _216  and  _219
REMARK   91  A    between atoms: _219  and  _220
REMARK   92  A    between atoms: _223  and  _225
REMARK   93  A    between atoms: _225  and  _226
REMARK   94  A    between atoms: _229  and  _231
REMARK   95  A    between atoms: _231  and  _232
REMARK   96  A    between atoms: _231  and  _234
REMARK   97  A    between atoms: _234  and  _235
REMARK   98  A    between atoms: _246  and  _247
REMARK   99  A    between atoms: _252  and  _254
REMARK  100  A    between atoms: _254  and  _255
REMARK  101  A    between atoms: _258  and  _260
REMARK  102  A    between atoms: _260  and  _261
REMARK  103  A    between atoms: _260  and  _263
REMARK  104  A    between atoms: _263  and  _264
REMARK  105  A    between atoms: _269  and  _271
REMARK  106  A    between atoms: _271  and  _272
REMARK  107  A    between atoms: _271  and  _274
REMARK  108  A    between atoms: _274  and  _275
REMARK  109  A    between atoms: _280  and  _281
REMARK  110  A    between atoms: _283  and  _285
REMARK  111  A    between atoms: _285  and  _286
REMARK  112  A    between atoms: _289  and  _291
REMARK  113  A    between atoms: _291  and  _292
REMARK  114  A    between atoms: _291  and  _294
REMARK  115  A    between atoms: _294  and  _295
REMARK  116  A    between atoms: _295  and  _296
REMARK  117  A    between atoms: _301  and  _303
REMARK  118  A    between atoms: _303  and  _304
REMARK  119  A    between atoms: _303  and  _306
REMARK  120  A    between atoms: _306  and  _307
REMARK  121  A    between atoms: _307  and  _308
REMARK  122  A    between atoms: _310  and  _312
REMARK  123  A    between atoms: _312  and  _313
REMARK  124  A    between atoms: _315  and  _317
REMARK  125  A    between atoms: _317  and  _318
REMARK  126  A    between atoms: _321  and  _323
REMARK  127  A    between atoms: _323  and  _324
REMARK  128  A    between atoms: _323  and  _326
REMARK  129  A    between atoms: _326  and  _327
REMARK  130  A    between atoms: _337  and  _339
REMARK  131  A    between atoms: _339  and  _340
REMARK  132  A    between atoms: _339  and  _342
REMARK  133  A    between atoms: _342  and  _343
REMARK  134  A    between atoms: _343  and  _344
REMARK  135  A    between atoms: _347  and  _349
REMARK  136  A    between atoms: _349  and  _350
REMARK  137  A    between atoms: _352  and  _354
REMARK  138  A    between atoms: _354  and  _355
REMARK  139  A    between atoms: _354  and  _357
REMARK  140  A    between atoms: _360  and  _362
REMARK  141  A    between atoms: _362  and  _363
REMARK  142  A    between atoms: _362  and  _365
REMARK  143  A    between atoms: _365  and  _366
REMARK  144  A    between atoms: _366  and  _367
REMARK  145  A    between atoms: _369  and  _371
REMARK  146  A    between atoms: _371  and  _372
REMARK  147  A    between atoms: _374  and  _376
REMARK  148  A    between atoms: _376  and  _377
REMARK  149  A    between atoms: _379  and  _381
REMARK  150  A    between atoms: _381  and  _382
REMARK  151  A    between atoms: _381  and  _384
REMARK  152  A    between atoms: _387  and  _389
REMARK  153  A    between atoms: _389  and  _390
REMARK  154  A    between atoms: _389  and  _392
REMARK  155  A    between atoms: _392  and  _393
REMARK  156  A    between atoms: _396  and  _398
REMARK  157  A    between atoms: _398  and  _399
REMARK  158  A    between atoms: _398  and  _401
REMARK  159  A    between atoms: _401  and  _402
REMARK  160  A    between atoms: _407  and  _408
REMARK  161  A    between atoms: _410  and  _412
REMARK  162  A    between atoms: _412  and  _413
REMARK  163  A    between atoms: _412  and  _415
REMARK  164  A    between atoms: _415  and  _416
REMARK  165  A    between atoms: _422  and  _424
REMARK  166  A    between atoms: _424  and  _425
REMARK  167  A    between atoms: _424  and  _427
REMARK  168  A    between atoms: _427  and  _428
REMARK  169  A    between atoms: _428  and  _429
REMARK  170  A    between atoms: _434  and  _436
REMARK  171  A    between atoms: _436  and  _437
REMARK  172  A    between atoms: _436  and  _439
REMARK  173  A    between atoms: _439  and  _440
REMARK  174  A    between atoms: _445  and  _446
REMARK  175  A    between atoms: _448  and  _450
REMARK  176  A    between atoms: _450  and  _451
REMARK  177  A    between atoms: _454  and  _456
REMARK  178  A    between atoms: _456  and  _457
REMARK  179  A    between atoms: _456  and  _459
REMARK  180  A    between atoms: _459  and  _460
REMARK  181  A    between atoms: _466  and  _468
REMARK  182  A    between atoms: _468  and  _469
REMARK  183  A    between atoms: _468  and  _471
REMARK  184  A    between atoms: _471  and  _472
REMARK  185  A    between atoms: _474  and  _476
REMARK  186  A    between atoms: _476  and  _477
REMARK  187  A    between atoms: _476  and  _479
REMARK  188  A    between atoms: _479  and  _480
REMARK  189  A    between atoms: _483  and  _485
REMARK  190  A    between atoms: _485  and  _486
REMARK  191  A    between atoms: _485  and  _488
REMARK  192  A    between atoms: _488  and  _489
REMARK  193  A    between atoms: _493  and  _494
REMARK  194  A    between atoms: _499  and  _501
REMARK  195  A    between atoms: _501  and  _502
REMARK  196  A    between atoms: _505  and  _507
REMARK  197  A    between atoms: _507  and  _508
REMARK  198  A    between atoms: _507  and  _510
REMARK  199  A    between atoms: _510  and  _511
REMARK  200  A    between atoms: _514  and  _516
REMARK  201  A    between atoms: _516  and  _517
REMARK  202  A    between atoms: _516  and  _519
REMARK  203  A    between atoms: _519  and  _520
REMARK  204  A    between atoms: _530  and  _532
REMARK  205  A    between atoms: _532  and  _533
REMARK  206  A    between atoms: _532  and  _535
REMARK  207  A    between atoms: _535  and  _536
REMARK  208  A    between atoms: _536  and  _537
REMARK  209  A    between atoms: _539  and  _541
REMARK  210  A    between atoms: _541  and  _542
REMARK  211  A    between atoms: _541  and  _544
REMARK  212  A    between atoms: _544  and  _545
REMARK  213  A    between atoms: _548  and  _550
REMARK  214  A    between atoms: _550  and  _551
REMARK  215  A    between atoms: _550  and  _553
REMARK  216  A    between atoms: _553  and  _554
REMARK  217  A    between atoms: _557  and  _559
REMARK  218  A    between atoms: _559  and  _560
REMARK  219  A    between atoms: _563  and  _565
REMARK  220  A    between atoms: _565  and  _566
REMARK  221  A    between atoms: _568  and  _570
REMARK  222  A    between atoms: _570  and  _571
REMARK  223  A    between atoms: _570  and  _573
REMARK  224  A    between atoms: _573  and  _574
REMARK  225  A    between atoms: _579  and  _581
REMARK  226  A    between atoms: _581  and  _582
REMARK  227  A    between atoms: _581  and  _584
REMARK  228  A    between atoms: _584  and  _585
REMARK                            x       y       z     vdW  Elec       q    Type
REMARK                         _______ _______ _______ _____ _____    ______ ____
ROOT
ATOM      1  CB  ASN A   1     -11.217  25.350  -3.826  0.00  0.00    +0.110 C 
ENDROOT
BRANCH   1   2
ATOM      2  CG  ASN A   1     -10.866  25.160  -5.291  0.00  0.00    +0.221 C 
ATOM      3  OD1 ASN A   1     -10.087  25.927  -5.860  0.00  0.00    -0.275 OA
ATOM      4  ND2 ASN A   1     -11.435  24.134  -5.907  0.00  0.00    -0.329 N 
ATOM      5 HD21 ASN A   1     -12.087  23.512  -5.387  0.00  0.00    +0.145 HD
ATOM      6 HD22 ASN A   1     -11.230  23.951  -6.910  0.00  0.00    +0.145 HD
ENDBRANCH   1   2
BRANCH   1   7
ATOM      7  CA  ASN A   1     -10.532  26.572  -3.213  0.00  0.00    +0.142 C 
BRANCH   7   8
ATOM      8  N   ASN A   1      -9.097  26.344  -3.123  0.00  0.00    -0.239 NA
ATOM      9  H   ASN A   1      -8.712  25.424  -3.420  0.00  0.00    +0.142 HD
ENDBRANCH   7   8
BRANCH   7  10
ATOM     10  C   ASN A   1     -11.153  26.911  -1.863  0.00  0.00    +0.225 C 
ATOM     11  O   ASN A   1     -11.976  27.819  -1.766  0.00  0.00    -0.287 OA
ENDBRANCH   7  10
ENDBRANCH   1   7
TORSDOF 4
REMARK  Name = ../refined-set-2016/4c1u/4c1u_pocket.pdb
REMARK  228 active torsions:
REMARK  status: ('A' for Active; 'I' for Inactive)
REMARK    1  A    between atoms: _1  and  _3
REMARK    2  A    between atoms: _3  and  _4
REMARK    3  A    between atoms: _3  and  _6
REMARK    4  A    between atoms: _6  and  _7
REMARK    5  A    between atoms: _12  and  _14
REMARK    6  A    between atoms: _14  and  _15
REMARK    7  A    between atoms: _14  and  _17
REMARK    8  A    between atoms: _17  and  _18
REMARK    9  A    between atoms: _23  and  _25
REMARK   10  A    between atoms: _25  and  _26
REMARK   11  A    between atoms: _29  and  _31
REMARK   12  A    between atoms: _31  and  _32
REMARK   13  A    between atoms: _31  and  _34
REMARK   14  A    between atoms: _34  and  _35
REMARK   15  A    between atoms: _37  and  _39
REMARK   16  A    between atoms: _39  and  _40
REMARK   17  A    between atoms: _43  and  _45
REMARK   18  A    between atoms: _45  and  _46
REMARK   19  A    between atoms: _48  and  _50
REMARK   20  A    between atoms: _50  and  _51
REMARK   21  A    between atoms: _50  and  _53
REMARK   22  A    between atoms: _53  and  _54
REMARK   23  A    between atoms: _54  and  _55
REMARK   24  A    between atoms: _55  and  _56
REMARK   25  A    between atoms: _65  and  _67
REMARK   26  A    between atoms: _67  and  _68
REMARK   27  A    between atoms: _67  and  _70
REMARK   28  A    between atoms: _70  and  _71
REMARK   29  A    between atoms: _81  and  _83
REMARK   30  A    between atoms: _83  and  _84
REMARK   31  A    between atoms: _83  and  _86
REMARK   32  A    between atoms: _86  and  _87
REMARK   33  A    between atoms: _90  and  _92
REMARK   34  A    between atoms: _92  and  _93
REMARK   35  A    between atoms: _92  and  _95
REMARK   36  A    between atoms: _95  and  _96
REMARK   37  A    between atoms: _96  and  _97
REMARK   38  A    between atoms: _102  and  _104
REMARK   39  A    between atoms: _104  and  _105
REMARK   40  A    between atoms: _104  and  _107
REMARK   41  A    between atoms: _107  and  _108
REMARK   42  A    between atoms: _113  and  _115
REMARK   43  A    between atoms: _115  and  _116
REMARK   44  A    between atoms: _115  and  _118
REMARK   45  A    between atoms: _118  and  _119
REMARK   46  A    between atoms: _119  and  _120
REMARK   47  A    between atoms: _123  and  _125
REMARK   48  A    between atoms: _125  and  _126
REMARK   49  A    between atoms: _125  and  _128
REMARK   50  A    between atoms: _128  and  _129
REMARK   51  A    between atoms: _135  and  _137
REMARK   52  A    between atoms: _137  and  _138
REMARK   53  A    between atoms: _141  and  _143
REMARK   54  A    between atoms: _143  and  _144
REMARK   55  A    between atoms: _143  and  _146
REMARK   56  A    between atoms: _146  and  _147
REMARK   57  A    between atoms: _147  and  _148
REMARK   58  A    between atoms: _150  and  _152
REMARK   59  A    between atoms: _152  and  _153
REMARK   60  A    between atoms: _152  and  _155
REMARK   61  A    between atoms: _155  and  _156
REMARK   62  A    between atoms: _158  and  _160
REMARK   63  A    between atoms: _160  and  _161
REMARK   64  A    between atoms: _160  and  _163
REMARK   65  A    between atoms: _163  and  _164
REMARK   66  A    between atoms: _167  and  _169
REMARK   67  A    between atoms: _169  and  _170
REMARK   68  A    between atoms: _169  and  _172
REMARK   69  A    between atoms: _172  and  _173
REMARK   70  A    between atoms: _173  and  _174
REMARK   71  A    between atoms: _174  and  _175
REMARK   72  A    between atoms: _175  and  _176
REMARK   73  A    between atoms: _180  and  _182
REMARK   74  A    between atoms: _182  and  _183
REMARK   75  A    between atoms: _182  and  _185
REMARK   76  A    between atoms: _188  and  _190
REMARK   77  A    between atoms: _190  and  _191
REMARK   78  A    between atoms: _190  and  _193
REMARK   79  A    between atoms: _193  and  _194
REMARK   80  A    between atoms: _196  and  _198
REMARK   81  A    between atoms: _198  and  _199
REMARK   82  A    between atoms: _198  and  _201
REMARK   83  A    between atoms: _204  and  _206
REMARK   84  A    between atoms: _206  and  _207
REMARK   85  A    between atoms: _206  and  _209
REMARK   86  A    between atoms: _209  and  _210
REMARK   87  A    between atoms: _210  and  _211
REMARK   88  A    between atoms: _214  and  _216
REMARK   89  A    between atoms: _216  and  _217
REMARK   90  A    between atoms: _216  and  _219
REMARK   91  A    between atoms: _219  and  _220
REMARK   92  A    between atoms: _223  and  _225
REMARK   93  A    between atoms: _225  and  _226
REMARK   94  A    between atoms: _229  and  _231
REMARK   95  A    between atoms: _231  and  _232
REMARK   96  A    between atoms: _231  and  _234
REMARK   97  A    between atoms: _234  and  _235
REMARK   98  A    between atoms: _246  and  _247
REMARK   99  A    between atoms: _252  and  _254
REMARK  100  A    between atoms: _254  and  _255
REMARK  101  A    between atoms: _258  and  _260
REMARK  102  A    between atoms: _260  and  _261
REMARK  103  A    between atoms: _260  and  _263
REMARK  104  A    between atoms: _263  and  _264
REMARK  105  A    between atoms: _269  and  _271
REMARK  106  A    between atoms: _271  and  _272
REMARK  107  A    between atoms: _271  and  _274
REMARK  108  A    between atoms: _274  and  _275
REMARK  109  A    between atoms: _280  and  _281
REMARK  110  A    between atoms: _283  and  _285
REMARK  111  A    between atoms: _285  and  _286
REMARK  112  A    between atoms: _289  and  _291
REMARK  113  A    between atoms: _291  and  _292
REMARK  114  A    between atoms: _291  and  _294
REMARK  115  A    between atoms: _294  and  _295
REMARK  116  A    between atoms: _295  and  _296
REMARK  117  A    between atoms: _301  and  _303
REMARK  118  A    between atoms: _303  and  _304
REMARK  119  A    between atoms: _303  and  _306
REMARK  120  A    between atoms: _306  and  _307
REMARK  121  A    between atoms: _307  and  _308
REMARK  122  A    between atoms: _310  and  _312
REMARK  123  A    between atoms: _312  and  _313
REMARK  124  A    between atoms: _315  and  _317
REMARK  125  A    between atoms: _317  and  _318
REMARK  126  A    between atoms: _321  and  _323
REMARK  127  A    between atoms: _323  and  _324
REMARK  128  A    between atoms: _323  and  _326
REMARK  129  A    between atoms: _326  and  _327
REMARK  130  A    between atoms: _337  and  _339
REMARK  131  A    between atoms: _339  and  _340
REMARK  132  A    between atoms: _339  and  _342
REMARK  133  A    between atoms: _342  and  _343
REMARK  134  A    between atoms: _343  and  _344
REMARK  135  A    between atoms: _347  and  _349
REMARK  136  A    between atoms: _349  and  _350
REMARK  137  A    between atoms: _352  and  _354
REMARK  138  A    between atoms: _354  and  _355
REMARK  139  A    between atoms: _354  and  _357
REMARK  140  A    between atoms: _360  and  _362
REMARK  141  A    between atoms: _362  and  _363
REMARK  142  A    between atoms: _362  and  _365
REMARK  143  A    between atoms: _365  and  _366
REMARK  144  A    between atoms: _366  and  _367
REMARK  145  A    between atoms: _369  and  _371
REMARK  146  A    between atoms: _371  and  _372
REMARK  147  A    between atoms: _374  and  _376
REMARK  148  A    between atoms: _376  and  _377
REMARK  149  A    between atoms: _379  and  _381
REMARK  150  A    between atoms: _381  and  _382
REMARK  151  A    between atoms: _381  and  _384
REMARK  152  A    between atoms: _387  and  _389
REMARK  153  A    between atoms: _389  and  _390
REMARK  154  A    between atoms: _389  and  _392
REMARK  155  A    between atoms: _392  and  _393
REMARK  156  A    between atoms: _396  and  _398
REMARK  157  A    between atoms: _398  and  _399
REMARK  158  A    between atoms: _398  and  _401
REMARK  159  A    between atoms: _401  and  _402
REMARK  160  A    between atoms: _407  and  _408
REMARK  161  A    between atoms: _410  and  _412
REMARK  162  A    between atoms: _412  and  _413
REMARK  163  A    between atoms: _412  and  _415
REMARK  164  A    between atoms: _415  and  _416
REMARK  165  A    between atoms: _422  and  _424
REMARK  166  A    between atoms: _424  and  _425
REMARK  167  A    between atoms: _424  and  _427
REMARK  168  A    between atoms: _427  and  _428
REMARK  169  A    between atoms: _428  and  _429
REMARK  170  A    between atoms: _434  and  _436
REMARK  171  A    between atoms: _436  and  _437
REMARK  172  A    between atoms: _436  and  _439
REMARK  173  A    between atoms: _439  and  _440
REMARK  174  A    between atoms: _445  and  _446
REMARK  175  A    between atoms: _448  and  _450
REMARK  176  A    between atoms: _450  and  _451
REMARK  177  A    between atoms: _454  and  _456
REMARK  178  A    between atoms: _456  and  _457
REMARK  179  A    between atoms: _456  and  _459
REMARK  180  A    between atoms: _459  and  _460
REMARK  181  A    between atoms: _466  and  _468
REMARK  182  A    between atoms: _468  and  _469
REMARK  183  A    between atoms: _468  and  _471
REMARK  184  A    between atoms: _471  and  _472
REMARK  185  A    between atoms: _474  and  _476
REMARK  186  A    between atoms: _476  and  _477
REMARK  187  A    between atoms: _476  and  _479
REMARK  188  A    between atoms: _479  and  _480
REMARK  189  A    between atoms: _483  and  _485
REMARK  190  A    between atoms: _485  and  _486
REMARK  191  A    between atoms: _485  and  _488
REMARK  192  A    between atoms: _488  and  _489
REMARK  193  A    between atoms: _493  and  _494
REMARK  194  A    between atoms: _499  and  _501
REMARK  195  A    between atoms: _501  and  _502
REMARK  196  A    between atoms: _505  and  _507
REMARK  197  A    between atoms: _507  and  _508
REMARK  198  A    between atoms: _507  and  _510
REMARK  199  A    between atoms: _510  and  _511
REMARK  200  A    between atoms: _514  and  _516
REMARK  201  A    between atoms: _516  and  _517
REMARK  202  A    between atoms: _516  and  _519
REMARK  203  A    between atoms: _519  and  _520
REMARK  204  A    between atoms: _530  and  _532
REMARK  205  A    between atoms: _532  and  _533
REMARK  206  A    between atoms: _532  and  _535
REMARK  207  A    between atoms: _535  and  _536
REMARK  208  A    between atoms: _536  and  _537
REMARK  209  A    between atoms: _539  and  _541
REMARK  210  A    between atoms: _541  and  _542
REMARK  211  A    between atoms: _541  and  _544
REMARK  212  A    between atoms: _544  and  _545
REMARK  213  A    between atoms: _548  and  _550
REMARK  214  A    between atoms: _550  and  _551
REMARK  215  A    between atoms: _550  and  _553
REMARK  216  A    between atoms: _553  and  _554
REMARK  217  A    between atoms: _557  and  _559
REMARK  218  A    between atoms: _559  and  _560
REMARK  219  A    between atoms: _563  and  _565
REMARK  220  A    between atoms: _565  and  _566
REMARK  221  A    between atoms: _568  and  _570
REMARK  222  A    between atoms: _570  and  _571
REMARK  223  A    between atoms: _570  and  _573
REMARK  224  A    between atoms: _573  and  _574
REMARK  225  A    between atoms: _579  and  _581
REMARK  226  A    between atoms: _581  and  _582
REMARK  227  A    between atoms: _581  and  _584
REMARK  228  A    between atoms: _584  and  _585
REMARK                            x       y       z     vdW  Elec       q    Type
REMARK                         _______ _______ _______ _____ _____    ______ ____
ROOT
ATOM      1  O   HOH     1     -20.613  13.115 -17.780  0.00  0.00    +0.000 OA
ENDROOT
TORSDOF 0
REMARK  Name = ../refined-set-2016/4c1u/4c1u_pocket.pdb
REMARK  228 active torsions:
REMARK  status: ('A' for Active; 'I' for Inactive)
REMARK    1  A    between atoms: _1  and  _3
REMARK    2  A    between atoms: _3  and  _4
REMARK    3  A    between atoms: _3  and  _6
REMARK    4  A    between atoms: _6  and  _7
REMARK    5  A    between atoms: _12  and  _14
REMARK    6  A    between atoms: _14  and  _15
REMARK    7  A    between atoms: _14  and  _17
REMARK    8  A    between atoms: _17  and  _18
REMARK    9  A    between atoms: _23  and  _25
REMARK   10  A    between atoms: _25  and  _26
REMARK   11  A    between atoms: _29  and  _31
REMARK   12  A    between atoms: _31  and  _32
REMARK   13  A    between atoms: _31  and  _34
REMARK   14  A    between atoms: _34  and  _35
REMARK   15  A    between atoms: _37  and  _39
REMARK   16  A    between atoms: _39  and  _40
REMARK   17  A    between atoms: _43  and  _45
REMARK   18  A    between atoms: _45  and  _46
REMARK   19  A    between atoms: _48  and  _50
REMARK   20  A    between atoms: _50  and  _51
REMARK   21  A    between atoms: _50  and  _53
REMARK   22  A    between atoms: _53  and  _54
REMARK   23  A    between atoms: _54  and  _55
REMARK   24  A    between atoms: _55  and  _56
REMARK   25  A    between atoms: _65  and  _67
REMARK   26  A    between atoms: _67  and  _68
REMARK   27  A    between atoms: _67  and  _70
REMARK   28  A    between atoms: _70  and  _71
REMARK   29  A    between atoms: _81  and  _83
REMARK   30  A    between atoms: _83  and  _84
REMARK   31  A    between atoms: _83  and  _86
REMARK   32  A    between atoms: _86  and  _87
REMARK   33  A    between atoms: _90  and  _92
REMARK   34  A    between atoms: _92  and  _93
REMARK   35  A    between atoms: _92  and  _95
REMARK   36  A    between atoms: _95  and  _96
REMARK   37  A    between atoms: _96  and  _97
REMARK   38  A    between atoms: _102  and  _104
REMARK   39  A    between atoms: _104  and  _105
REMARK   40  A    between atoms: _104  and  _107
REMARK   41  A    between atoms: _107  and  _108
REMARK   42  A    between atoms: _113  and  _115
REMARK   43  A    between atoms: _115  and  _116
REMARK   44  A    between atoms: _115  and  _118
REMARK   45  A    between atoms: _118  and  _119
REMARK   46  A    between atoms: _119  and  _120
REMARK   47  A    between atoms: _123  and  _125
REMARK   48  A    between atoms: _125  and  _126
REMARK   49  A    between atoms: _125  and  _128
REMARK   50  A    between atoms: _128  and  _129
REMARK   51  A    between atoms: _135  and  _137
REMARK   52  A    between atoms: _137  and  _138
REMARK   53  A    between atoms: _141  and  _143
REMARK   54  A    between atoms: _143  and  _144
REMARK   55  A    between atoms: _143  and  _146
REMARK   56  A    between atoms: _146  and  _147
REMARK   57  A    between atoms: _147  and  _148
REMARK   58  A    between atoms: _150  and  _152
REMARK   59  A    between atoms: _152  and  _153
REMARK   60  A    between atoms: _152  and  _155
REMARK   61  A    between atoms: _155  and  _156
REMARK   62  A    between atoms: _158  and  _160
REMARK   63  A    between atoms: _160  and  _161
REMARK   64  A    between atoms: _160  and  _163
REMARK   65  A    between atoms: _163  and  _164
REMARK   66  A    between atoms: _167  and  _169
REMARK   67  A    between atoms: _169  and  _170
REMARK   68  A    between atoms: _169  and  _172
REMARK   69  A    between atoms: _172  and  _173
REMARK   70  A    between atoms: _173  and  _174
REMARK   71  A    between atoms: _174  and  _175
REMARK   72  A    between atoms: _175  and  _176
REMARK   73  A    between atoms: _180  and  _182
REMARK   74  A    between atoms: _182  and  _183
REMARK   75  A    between atoms: _182  and  _185
REMARK   76  A    between atoms: _188  and  _190
REMARK   77  A    between atoms: _190  and  _191
REMARK   78  A    between atoms: _190  and  _193
REMARK   79  A    between atoms: _193  and  _194
REMARK   80  A    between atoms: _196  and  _198
REMARK   81  A    between atoms: _198  and  _199
REMARK   82  A    between atoms: _198  and  _201
REMARK   83  A    between atoms: _204  and  _206
REMARK   84  A    between atoms: _206  and  _207
REMARK   85  A    between atoms: _206  and  _209
REMARK   86  A    between atoms: _209  and  _210
REMARK   87  A    between atoms: _210  and  _211
REMARK   88  A    between atoms: _214  and  _216
REMARK   89  A    between atoms: _216  and  _217
REMARK   90  A    between atoms: _216  and  _219
REMARK   91  A    between atoms: _219  and  _220
REMARK   92  A    between atoms: _223  and  _225
REMARK   93  A    between atoms: _225  and  _226
REMARK   94  A    between atoms: _229  and  _231
REMARK   95  A    between atoms: _231  and  _232
REMARK   96  A    between atoms: _231  and  _234
REMARK   97  A    between atoms: _234  and  _235
REMARK   98  A    between atoms: _246  and  _247
REMARK   99  A    between atoms: _252  and  _254
REMARK  100  A    between atoms: _254  and  _255
REMARK  101  A    between atoms: _258  and  _260
REMARK  102  A    between atoms: _260  and  _261
REMARK  103  A    between atoms: _260  and  _263
REMARK  104  A    between atoms: _263  and  _264
REMARK  105  A    between atoms: _269  and  _271
REMARK  106  A    between atoms: _271  and  _272
REMARK  107  A    between atoms: _271  and  _274
REMARK  108  A    between atoms: _274  and  _275
REMARK  109  A    between atoms: _280  and  _281
REMARK  110  A    between atoms: _283  and  _285
REMARK  111  A    between atoms: _285  and  _286
REMARK  112  A    between atoms: _289  and  _291
REMARK  113  A    between atoms: _291  and  _292
REMARK  114  A    between atoms: _291  and  _294
REMARK  115  A    between atoms: _294  and  _295
REMARK  116  A    between atoms: _295  and  _296
REMARK  117  A    between atoms: _301  and  _303
REMARK  118  A    between atoms: _303  and  _304
REMARK  119  A    between atoms: _303  and  _306
REMARK  120  A    between atoms: _306  and  _307
REMARK  121  A    between atoms: _307  and  _308
REMARK  122  A    between atoms: _310  and  _312
REMARK  123  A    between atoms: _312  and  _313
REMARK  124  A    between atoms: _315  and  _317
REMARK  125  A    between atoms: _317  and  _318
REMARK  126  A    between atoms: _321  and  _323
REMARK  127  A    between atoms: _323  and  _324
REMARK  128  A    between atoms: _323  and  _326
REMARK  129  A    between atoms: _326  and  _327
REMARK  130  A    between atoms: _337  and  _339
REMARK  131  A    between atoms: _339  and  _340
REMARK  132  A    between atoms: _339  and  _342
REMARK  133  A    between atoms: _342  and  _343
REMARK  134  A    between atoms: _343  and  _344
REMARK  135  A    between atoms: _347  and  _349
REMARK  136  A    between atoms: _349  and  _350
REMARK  137  A    between atoms: _352  and  _354
REMARK  138  A    between atoms: _354  and  _355
REMARK  139  A    between atoms: _354  and  _357
REMARK  140  A    between atoms: _360  and  _362
REMARK  141  A    between atoms: _362  and  _363
REMARK  142  A    between atoms: _362  and  _365
REMARK  143  A    between atoms: _365  and  _366
REMARK  144  A    between atoms: _366  and  _367
REMARK  145  A    between atoms: _369  and  _371
REMARK  146  A    between atoms: _371  and  _372
REMARK  147  A    between atoms: _374  and  _376
REMARK  148  A    between atoms: _376  and  _377
REMARK  149  A    between atoms: _379  and  _381
REMARK  150  A    between atoms: _381  and  _382
REMARK  151  A    between atoms: _381  and  _384
REMARK  152  A    between atoms: _387  and  _389
REMARK  153  A    between atoms: _389  and  _390
REMARK  154  A    between atoms: _389  and  _392
REMARK  155  A    between atoms: _392  and  _393
REMARK  156  A    between atoms: _396  and  _398
REMARK  157  A    between atoms: _398  and  _399
REMARK  158  A    between atoms: _398  and  _401
REMARK  159  A    between atoms: _401  and  _402
REMARK  160  A    between atoms: _407  and  _408
REMARK  161  A    between atoms: _410  and  _412
REMARK  162  A    between atoms: _412  and  _413
REMARK  163  A    between atoms: _412  and  _415
REMARK  164  A    between atoms: _415  and  _416
REMARK  165  A    between atoms: _422  and  _424
REMARK  166  A    between atoms: _424  and  _425
REMARK  167  A    between atoms: _424  and  _427
REMARK  168  A    between atoms: _427  and  _428
REMARK  169  A    between atoms: _428  and  _429
REMARK  170  A    between atoms: _434  and  _436
REMARK  171  A    between atoms: _436  and  _437
REMARK  172  A    between atoms: _436  and  _439
REMARK  173  A    between atoms: _439  and  _440
REMARK  174  A    between atoms: _445  and  _446
REMARK  175  A    between atoms: _448  and  _450
REMARK  176  A    between atoms: _450  and  _451
REMARK  177  A    between atoms: _454  and  _456
REMARK  178  A    between atoms: _456  and  _457
REMARK  179  A    between atoms: _456  and  _459
REMARK  180  A    between atoms: _459  and  _460
REMARK  181  A    between atoms: _466  and  _468
REMARK  182  A    between atoms: _468  and  _469
REMARK  183  A    between atoms: _468  and  _471
REMARK  184  A    between atoms: _471  and  _472
REMARK  185  A    between atoms: _474  and  _476
REMARK  186  A    between atoms: _476  and  _477
REMARK  187  A    between atoms: _476  and  _479
REMARK  188  A    between atoms: _479  and  _480
REMARK  189  A    between atoms: _483  and  _485
REMARK  190  A    between atoms: _485  and  _486
REMARK  191  A    between atoms: _485  and  _488
REMARK  192  A    between atoms: _488  and  _489
REMARK  193  A    between atoms: _493  and  _494
REMARK  194  A    between atoms: _499  and  _501
REMARK  195  A    between atoms: _501  and  _502
REMARK  196  A    between atoms: _505  and  _507
REMARK  197  A    between atoms: _507  and  _508
REMARK  198  A    between atoms: _507  and  _510
REMARK  199  A    between atoms: _510  and  _511
REMARK  200  A    between atoms: _514  and  _516
REMARK  201  A    between atoms: _516  and  _517
REMARK  202  A    between atoms: _516  and  _519
REMARK  203  A    between atoms: _519  and  _520
REMARK  204  A    between atoms: _530  and  _532
REMARK  205  A    between atoms: _532  and  _533
REMARK  206  A    between atoms: _532  and  _535
REMARK  207  A    between atoms: _535  and  _536
REMARK  208  A    between atoms: _536  and  _537
REMARK  209  A    between atoms: _539  and  _541
REMARK  210  A    between atoms: _541  and  _542
REMARK  211  A    between atoms: _541  and  _544
REMARK  212  A    between atoms: _544  and  _545
REMARK  213  A    between atoms: _548  and  _550
REMARK  214  A    between atoms: _550  and  _551
REMARK  215  A    between atoms: _550  and  _553
REMARK  216  A    between atoms: _553  and  _554
REMARK  217  A    between atoms: _557  and  _559
REMARK  218  A    between atoms: _559  and  _560
REMARK  219  A    between atoms: _563  and  _565
REMARK  220  A    between atoms: _565  and  _566
REMARK  221  A    between atoms: _568  and  _570
REMARK  222  A    between atoms: _570  and  _571
REMARK  223  A    between atoms: _570  and  _573
REMARK  224  A    between atoms: _573  and  _574
REMARK  225  A    between atoms: _579  and  _581
REMARK  226  A    between atoms: _581  and  _582
REMARK  227  A    between atoms: _581  and  _584
REMARK  228  A    between atoms: _584  and  _585
REMARK                            x       y       z     vdW  Elec       q    Type
REMARK                         _______ _______ _______ _____ _____    ______ ____
ROOT
ATOM      1  O   HOH     1     -23.461  16.273 -11.550  0.00  0.00    +0.000 OA
ENDROOT
TORSDOF 0
REMARK  Name = ../refined-set-2016/4c1u/4c1u_pocket.pdb
REMARK  228 active torsions:
REMARK  status: ('A' for Active; 'I' for Inactive)
REMARK    1  A    between atoms: _1  and  _3
REMARK    2  A    between atoms: _3  and  _4
REMARK    3  A    between atoms: _3  and  _6
REMARK    4  A    between atoms: _6  and  _7
REMARK    5  A    between atoms: _12  and  _14
REMARK    6  A    between atoms: _14  and  _15
REMARK    7  A    between atoms: _14  and  _17
REMARK    8  A    between atoms: _17  and  _18
REMARK    9  A    between atoms: _23  and  _25
REMARK   10  A    between atoms: _25  and  _26
REMARK   11  A    between atoms: _29  and  _31
REMARK   12  A    between atoms: _31  and  _32
REMARK   13  A    between atoms: _31  and  _34
REMARK   14  A    between atoms: _34  and  _35
REMARK   15  A    between atoms: _37  and  _39
REMARK   16  A    between atoms: _39  and  _40
REMARK   17  A    between atoms: _43  and  _45
REMARK   18  A    between atoms: _45  and  _46
REMARK   19  A    between atoms: _48  and  _50
REMARK   20  A    between atoms: _50  and  _51
REMARK   21  A    between atoms: _50  and  _53
REMARK   22  A    between atoms: _53  and  _54
REMARK   23  A    between atoms: _54  and  _55
REMARK   24  A    between atoms: _55  and  _56
REMARK   25  A    between atoms: _65  and  _67
REMARK   26  A    between atoms: _67  and  _68
REMARK   27  A    between atoms: _67  and  _70
REMARK   28  A    between atoms: _70  and  _71
REMARK   29  A    between atoms: _81  and  _83
REMARK   30  A    between atoms: _83  and  _84
REMARK   31  A    between atoms: _83  and  _86
REMARK   32  A    between atoms: _86  and  _87
REMARK   33  A    between atoms: _90  and  _92
REMARK   34  A    between atoms: _92  and  _93
REMARK   35  A    between atoms: _92  and  _95
REMARK   36  A    between atoms: _95  and  _96
REMARK   37  A    between atoms: _96  and  _97
REMARK   38  A    between atoms: _102  and  _104
REMARK   39  A    between atoms: _104  and  _105
REMARK   40  A    between atoms: _104  and  _107
REMARK   41  A    between atoms: _107  and  _108
REMARK   42  A    between atoms: _113  and  _115
REMARK   43  A    between atoms: _115  and  _116
REMARK   44  A    between atoms: _115  and  _118
REMARK   45  A    between atoms: _118  and  _119
REMARK   46  A    between atoms: _119  and  _120
REMARK   47  A    between atoms: _123  and  _125
REMARK   48  A    between atoms: _125  and  _126
REMARK   49  A    between atoms: _125  and  _128
REMARK   50  A    between atoms: _128  and  _129
REMARK   51  A    between atoms: _135  and  _137
REMARK   52  A    between atoms: _137  and  _138
REMARK   53  A    between atoms: _141  and  _143
REMARK   54  A    between atoms: _143  and  _144
REMARK   55  A    between atoms: _143  and  _146
REMARK   56  A    between atoms: _146  and  _147
REMARK   57  A    between atoms: _147  and  _148
REMARK   58  A    between atoms: _150  and  _152
REMARK   59  A    between atoms: _152  and  _153
REMARK   60  A    between atoms: _152  and  _155
REMARK   61  A    between atoms: _155  and  _156
REMARK   62  A    between atoms: _158  and  _160
REMARK   63  A    between atoms: _160  and  _161
REMARK   64  A    between atoms: _160  and  _163
REMARK   65  A    between atoms: _163  and  _164
REMARK   66  A    between atoms: _167  and  _169
REMARK   67  A    between atoms: _169  and  _170
REMARK   68  A    between atoms: _169  and  _172
REMARK   69  A    between atoms: _172  and  _173
REMARK   70  A    between atoms: _173  and  _174
REMARK   71  A    between atoms: _174  and  _175
REMARK   72  A    between atoms: _175  and  _176
REMARK   73  A    between atoms: _180  and  _182
REMARK   74  A    between atoms: _182  and  _183
REMARK   75  A    between atoms: _182  and  _185
REMARK   76  A    between atoms: _188  and  _190
REMARK   77  A    between atoms: _190  and  _191
REMARK   78  A    between atoms: _190  and  _193
REMARK   79  A    between atoms: _193  and  _194
REMARK   80  A    between atoms: _196  and  _198
REMARK   81  A    between atoms: _198  and  _199
REMARK   82  A    between atoms: _198  and  _201
REMARK   83  A    between atoms: _204  and  _206
REMARK   84  A    between atoms: _206  and  _207
REMARK   85  A    between atoms: _206  and  _209
REMARK   86  A    between atoms: _209  and  _210
REMARK   87  A    between atoms: _210  and  _211
REMARK   88  A    between atoms: _214  and  _216
REMARK   89  A    between atoms: _216  and  _217
REMARK   90  A    between atoms: _216  and  _219
REMARK   91  A    between atoms: _219  and  _220
REMARK   92  A    between atoms: _223  and  _225
REMARK   93  A    between atoms: _225  and  _226
REMARK   94  A    between atoms: _229  and  _231
REMARK   95  A    between atoms: _231  and  _232
REMARK   96  A    between atoms: _231  and  _234
REMARK   97  A    between atoms: _234  and  _235
REMARK   98  A    between atoms: _246  and  _247
REMARK   99  A    between atoms: _252  and  _254
REMARK  100  A    between atoms: _254  and  _255
REMARK  101  A    between atoms: _258  and  _260
REMARK  102  A    between atoms: _260  and  _261
REMARK  103  A    between atoms: _260  and  _263
REMARK  104  A    between atoms: _263  and  _264
REMARK  105  A    between atoms: _269  and  _271
REMARK  106  A    between atoms: _271  and  _272
REMARK  107  A    between atoms: _271  and  _274
REMARK  108  A    between atoms: _274  and  _275
REMARK  109  A    between atoms: _280  and  _281
REMARK  110  A    between atoms: _283  and  _285
REMARK  111  A    between atoms: _285  and  _286
REMARK  112  A    between atoms: _289  and  _291
REMARK  113  A    between atoms: _291  and  _292
REMARK  114  A    between atoms: _291  and  _294
REMARK  115  A    between atoms: _294  and  _295
REMARK  116  A    between atoms: _295  and  _296
REMARK  117  A    between atoms: _301  and  _303
REMARK  118  A    between atoms: _303  and  _304
REMARK  119  A    between atoms: _303  and  _306
REMARK  120  A    between atoms: _306  and  _307
REMARK  121  A    between atoms: _307  and  _308
REMARK  122  A    between atoms: _310  and  _312
REMARK  123  A    between atoms: _312  and  _313
REMARK  124  A    between atoms: _315  and  _317
REMARK  125  A    between atoms: _317  and  _318
REMARK  126  A    between atoms: _321  and  _323
REMARK  127  A    between atoms: _323  and  _324
REMARK  128  A    between atoms: _323  and  _326
REMARK  129  A    between atoms: _326  and  _327
REMARK  130  A    between atoms: _337  and  _339
REMARK  131  A    between atoms: _339  and  _340
REMARK  132  A    between atoms: _339  and  _342
REMARK  133  A    between atoms: _342  and  _343
REMARK  134  A    between atoms: _343  and  _344
REMARK  135  A    between atoms: _347  and  _349
REMARK  136  A    between atoms: _349  and  _350
REMARK  137  A    between atoms: _352  and  _354
REMARK  138  A    between atoms: _354  and  _355
REMARK  139  A    between atoms: _354  and  _357
REMARK  140  A    between atoms: _360  and  _362
REMARK  141  A    between atoms: _362  and  _363
REMARK  142  A    between atoms: _362  and  _365
REMARK  143  A    between atoms: _365  and  _366
REMARK  144  A    between atoms: _366  and  _367
REMARK  145  A    between atoms: _369  and  _371
REMARK  146  A    between atoms: _371  and  _372
REMARK  147  A    between atoms: _374  and  _376
REMARK  148  A    between atoms: _376  and  _377
REMARK  149  A    between atoms: _379  and  _381
REMARK  150  A    between atoms: _381  and  _382
REMARK  151  A    between atoms: _381  and  _384
REMARK  152  A    between atoms: _387  and  _389
REMARK  153  A    between atoms: _389  and  _390
REMARK  154  A    between atoms: _389  and  _392
REMARK  155  A    between atoms: _392  and  _393
REMARK  156  A    between atoms: _396  and  _398
REMARK  157  A    between atoms: _398  and  _399
REMARK  158  A    between atoms: _398  and  _401
REMARK  159  A    between atoms: _401  and  _402
REMARK  160  A    between atoms: _407  and  _408
REMARK  161  A    between atoms: _410  and  _412
REMARK  162  A    between atoms: _412  and  _413
REMARK  163  A    between atoms: _412  and  _415
REMARK  164  A    between atoms: _415  and  _416
REMARK  165  A    between atoms: _422  and  _424
REMARK  166  A    between atoms: _424  and  _425
REMARK  167  A    between atoms: _424  and  _427
REMARK  168  A    between atoms: _427  and  _428
REMARK  169  A    between atoms: _428  and  _429
REMARK  170  A    between atoms: _434  and  _436
REMARK  171  A    between atoms: _436  and  _437
REMARK  172  A    between atoms: _436  and  _439
REMARK  173  A    between atoms: _439  and  _440
REMARK  174  A    between atoms: _445  and  _446
REMARK  175  A    between atoms: _448  and  _450
REMARK  176  A    between atoms: _450  and  _451
REMARK  177  A    between atoms: _454  and  _456
REMARK  178  A    between atoms: _456  and  _457
REMARK  179  A    between atoms: _456  and  _459
REMARK  180  A    between atoms: _459  and  _460
REMARK  181  A    between atoms: _466  and  _468
REMARK  182  A    between atoms: _468  and  _469
REMARK  183  A    between atoms: _468  and  _471
REMARK  184  A    between atoms: _471  and  _472
REMARK  185  A    between atoms: _474  and  _476
REMARK  186  A    between atoms: _476  and  _477
REMARK  187  A    between atoms: _476  and  _479
REMARK  188  A    between atoms: _479  and  _480
REMARK  189  A    between atoms: _483  and  _485
REMARK  190  A    between atoms: _485  and  _486
REMARK  191  A    between atoms: _485  and  _488
REMARK  192  A    between atoms: _488  and  _489
REMARK  193  A    between atoms: _493  and  _494
REMARK  194  A    between atoms: _499  and  _501
REMARK  195  A    between atoms: _501  and  _502
REMARK  196  A    between atoms: _505  and  _507
REMARK  197  A    between atoms: _507  and  _508
REMARK  198  A    between atoms: _507  and  _510
REMARK  199  A    between atoms: _510  and  _511
REMARK  200  A    between atoms: _514  and  _516
REMARK  201  A    between atoms: _516  and  _517
REMARK  202  A    between atoms: _516  and  _519
REMARK  203  A    between atoms: _519  and  _520
REMARK  204  A    between atoms: _530  and  _532
REMARK  205  A    between atoms: _532  and  _533
REMARK  206  A    between atoms: _532  and  _535
REMARK  207  A    between atoms: _535  and  _536
REMARK  208  A    between atoms: _536  and  _537
REMARK  209  A    between atoms: _539  and  _541
REMARK  210  A    between atoms: _541  and  _542
REMARK  211  A    between atoms: _541  and  _544
REMARK  212  A    between atoms: _544  and  _545
REMARK  213  A    between atoms: _548  and  _550
REMARK  214  A    between atoms: _550  and  _551
REMARK  215  A    between atoms: _550  and  _553
REMARK  216  A    between atoms: _553  and  _554
REMARK  217  A    between atoms: _557  and  _559
REMARK  218  A    between atoms: _559  and  _560
REMARK  219  A    between atoms: _563  and  _565
REMARK  220  A    between atoms: _565  and  _566
REMARK  221  A    between atoms: _568  and  _570
REMARK  222  A    between atoms: _570  and  _571
REMARK  223  A    between atoms: _570  and  _573
REMARK  224  A    between atoms: _573  and  _574
REMARK  225  A    between atoms: _579  and  _581
REMARK  226  A    between atoms: _581  and  _582
REMARK  227  A    between atoms: _581  and  _584
REMARK  228  A    between atoms: _584  and  _585
REMARK                            x       y       z     vdW  Elec       q    Type
REMARK                         _______ _______ _______ _____ _____    ______ ____
ROOT
ATOM      1  O   HOH     1     -28.244  18.748 -20.117  0.00  0.00    +0.000 OA
ENDROOT
TORSDOF 0
REMARK  Name = ../refined-set-2016/4c1u/4c1u_pocket.pdb
REMARK  228 active torsions:
REMARK  status: ('A' for Active; 'I' for Inactive)
REMARK    1  A    between atoms: _1  and  _3
REMARK    2  A    between atoms: _3  and  _4
REMARK    3  A    between atoms: _3  and  _6
REMARK    4  A    between atoms: _6  and  _7
REMARK    5  A    between atoms: _12  and  _14
REMARK    6  A    between atoms: _14  and  _15
REMARK    7  A    between atoms: _14  and  _17
REMARK    8  A    between atoms: _17  and  _18
REMARK    9  A    between atoms: _23  and  _25
REMARK   10  A    between atoms: _25  and  _26
REMARK   11  A    between atoms: _29  and  _31
REMARK   12  A    between atoms: _31  and  _32
REMARK   13  A    between atoms: _31  and  _34
REMARK   14  A    between atoms: _34  and  _35
REMARK   15  A    between atoms: _37  and  _39
REMARK   16  A    between atoms: _39  and  _40
REMARK   17  A    between atoms: _43  and  _45
REMARK   18  A    between atoms: _45  and  _46
REMARK   19  A    between atoms: _48  and  _50
REMARK   20  A    between atoms: _50  and  _51
REMARK   21  A    between atoms: _50  and  _53
REMARK   22  A    between atoms: _53  and  _54
REMARK   23  A    between atoms: _54  and  _55
REMARK   24  A    between atoms: _55  and  _56
REMARK   25  A    between atoms: _65  and  _67
REMARK   26  A    between atoms: _67  and  _68
REMARK   27  A    between atoms: _67  and  _70
REMARK   28  A    between atoms: _70  and  _71
REMARK   29  A    between atoms: _81  and  _83
REMARK   30  A    between atoms: _83  and  _84
REMARK   31  A    between atoms: _83  and  _86
REMARK   32  A    between atoms: _86  and  _87
REMARK   33  A    between atoms: _90  and  _92
REMARK   34  A    between atoms: _92  and  _93
REMARK   35  A    between atoms: _92  and  _95
REMARK   36  A    between atoms: _95  and  _96
REMARK   37  A    between atoms: _96  and  _97
REMARK   38  A    between atoms: _102  and  _104
REMARK   39  A    between atoms: _104  and  _105
REMARK   40  A    between atoms: _104  and  _107
REMARK   41  A    between atoms: _107  and  _108
REMARK   42  A    between atoms: _113  and  _115
REMARK   43  A    between atoms: _115  and  _116
REMARK   44  A    between atoms: _115  and  _118
REMARK   45  A    between atoms: _118  and  _119
REMARK   46  A    between atoms: _119  and  _120
REMARK   47  A    between atoms: _123  and  _125
REMARK   48  A    between atoms: _125  and  _126
REMARK   49  A    between atoms: _125  and  _128
REMARK   50  A    between atoms: _128  and  _129
REMARK   51  A    between atoms: _135  and  _137
REMARK   52  A    between atoms: _137  and  _138
REMARK   53  A    between atoms: _141  and  _143
REMARK   54  A    between atoms: _143  and  _144
REMARK   55  A    between atoms: _143  and  _146
REMARK   56  A    between atoms: _146  and  _147
REMARK   57  A    between atoms: _147  and  _148
REMARK   58  A    between atoms: _150  and  _152
REMARK   59  A    between atoms: _152  and  _153
REMARK   60  A    between atoms: _152  and  _155
REMARK   61  A    between atoms: _155  and  _156
REMARK   62  A    between atoms: _158  and  _160
REMARK   63  A    between atoms: _160  and  _161
REMARK   64  A    between atoms: _160  and  _163
REMARK   65  A    between atoms: _163  and  _164
REMARK   66  A    between atoms: _167  and  _169
REMARK   67  A    between atoms: _169  and  _170
REMARK   68  A    between atoms: _169  and  _172
REMARK   69  A    between atoms: _172  and  _173
REMARK   70  A    between atoms: _173  and  _174
REMARK   71  A    between atoms: _174  and  _175
REMARK   72  A    between atoms: _175  and  _176
REMARK   73  A    between atoms: _180  and  _182
REMARK   74  A    between atoms: _182  and  _183
REMARK   75  A    between atoms: _182  and  _185
REMARK   76  A    between atoms: _188  and  _190
REMARK   77  A    between atoms: _190  and  _191
REMARK   78  A    between atoms: _190  and  _193
REMARK   79  A    between atoms: _193  and  _194
REMARK   80  A    between atoms: _196  and  _198
REMARK   81  A    between atoms: _198  and  _199
REMARK   82  A    between atoms: _198  and  _201
REMARK   83  A    between atoms: _204  and  _206
REMARK   84  A    between atoms: _206  and  _207
REMARK   85  A    between atoms: _206  and  _209
REMARK   86  A    between atoms: _209  and  _210
REMARK   87  A    between atoms: _210  and  _211
REMARK   88  A    between atoms: _214  and  _216
REMARK   89  A    between atoms: _216  and  _217
REMARK   90  A    between atoms: _216  and  _219
REMARK   91  A    between atoms: _219  and  _220
REMARK   92  A    between atoms: _223  and  _225
REMARK   93  A    between atoms: _225  and  _226
REMARK   94  A    between atoms: _229  and  _231
REMARK   95  A    between atoms: _231  and  _232
REMARK   96  A    between atoms: _231  and  _234
REMARK   97  A    between atoms: _234  and  _235
REMARK   98  A    between atoms: _246  and  _247
REMARK   99  A    between atoms: _252  and  _254
REMARK  100  A    between atoms: _254  and  _255
REMARK  101  A    between atoms: _258  and  _260
REMARK  102  A    between atoms: _260  and  _261
REMARK  103  A    between atoms: _260  and  _263
REMARK  104  A    between atoms: _263  and  _264
REMARK  105  A    between atoms: _269  and  _271
REMARK  106  A    between atoms: _271  and  _272
REMARK  107  A    between atoms: _271  and  _274
REMARK  108  A    between atoms: _274  and  _275
REMARK  109  A    between atoms: _280  and  _281
REMARK  110  A    between atoms: _283  and  _285
REMARK  111  A    between atoms: _285  and  _286
REMARK  112  A    between atoms: _289  and  _291
REMARK  113  A    between atoms: _291  and  _292
REMARK  114  A    between atoms: _291  and  _294
REMARK  115  A    between atoms: _294  and  _295
REMARK  116  A    between atoms: _295  and  _296
REMARK  117  A    between atoms: _301  and  _303
REMARK  118  A    between atoms: _303  and  _304
REMARK  119  A    between atoms: _303  and  _306
REMARK  120  A    between atoms: _306  and  _307
REMARK  121  A    between atoms: _307  and  _308
REMARK  122  A    between atoms: _310  and  _312
REMARK  123  A    between atoms: _312  and  _313
REMARK  124  A    between atoms: _315  and  _317
REMARK  125  A    between atoms: _317  and  _318
REMARK  126  A    between atoms: _321  and  _323
REMARK  127  A    between atoms: _323  and  _324
REMARK  128  A    between atoms: _323  and  _326
REMARK  129  A    between atoms: _326  and  _327
REMARK  130  A    between atoms: _337  and  _339
REMARK  131  A    between atoms: _339  and  _340
REMARK  132  A    between atoms: _339  and  _342
REMARK  133  A    between atoms: _342  and  _343
REMARK  134  A    between atoms: _343  and  _344
REMARK  135  A    between atoms: _347  and  _349
REMARK  136  A    between atoms: _349  and  _350
REMARK  137  A    between atoms: _352  and  _354
REMARK  138  A    between atoms: _354  and  _355
REMARK  139  A    between atoms: _354  and  _357
REMARK  140  A    between atoms: _360  and  _362
REMARK  141  A    between atoms: _362  and  _363
REMARK  142  A    between atoms: _362  and  _365
REMARK  143  A    between atoms: _365  and  _366
REMARK  144  A    between atoms: _366  and  _367
REMARK  145  A    between atoms: _369  and  _371
REMARK  146  A    between atoms: _371  and  _372
REMARK  147  A    between atoms: _374  and  _376
REMARK  148  A    between atoms: _376  and  _377
REMARK  149  A    between atoms: _379  and  _381
REMARK  150  A    between atoms: _381  and  _382
REMARK  151  A    between atoms: _381  and  _384
REMARK  152  A    between atoms: _387  and  _389
REMARK  153  A    between atoms: _389  and  _390
REMARK  154  A    between atoms: _389  and  _392
REMARK  155  A    between atoms: _392  and  _393
REMARK  156  A    between atoms: _396  and  _398
REMARK  157  A    between atoms: _398  and  _399
REMARK  158  A    between atoms: _398  and  _401
REMARK  159  A    between atoms: _401  and  _402
REMARK  160  A    between atoms: _407  and  _408
REMARK  161  A    between atoms: _410  and  _412
REMARK  162  A    between atoms: _412  and  _413
REMARK  163  A    between atoms: _412  and  _415
REMARK  164  A    between atoms: _415  and  _416
REMARK  165  A    between atoms: _422  and  _424
REMARK  166  A    between atoms: _424  and  _425
REMARK  167  A    between atoms: _424  and  _427
REMARK  168  A    between atoms: _427  and  _428
REMARK  169  A    between atoms: _428  and  _429
REMARK  170  A    between atoms: _434  and  _436
REMARK  171  A    between atoms: _436  and  _437
REMARK  172  A    between atoms: _436  and  _439
REMARK  173  A    between atoms: _439  and  _440
REMARK  174  A    between atoms: _445  and  _446
REMARK  175  A    between atoms: _448  and  _450
REMARK  176  A    between atoms: _450  and  _451
REMARK  177  A    between atoms: _454  and  _456
REMARK  178  A    between atoms: _456  and  _457
REMARK  179  A    between atoms: _456  and  _459
REMARK  180  A    between atoms: _459  and  _460
REMARK  181  A    between atoms: _466  and  _468
REMARK  182  A    between atoms: _468  and  _469
REMARK  183  A    between atoms: _468  and  _471
REMARK  184  A    between atoms: _471  and  _472
REMARK  185  A    between atoms: _474  and  _476
REMARK  186  A    between atoms: _476  and  _477
REMARK  187  A    between atoms: _476  and  _479
REMARK  188  A    between atoms: _479  and  _480
REMARK  189  A    between atoms: _483  and  _485
REMARK  190  A    between atoms: _485  and  _486
REMARK  191  A    between atoms: _485  and  _488
REMARK  192  A    between atoms: _488  and  _489
REMARK  193  A    between atoms: _493  and  _494
REMARK  194  A    between atoms: _499  and  _501
REMARK  195  A    between atoms: _501  and  _502
REMARK  196  A    between atoms: _505  and  _507
REMARK  197  A    between atoms: _507  and  _508
REMARK  198  A    between atoms: _507  and  _510
REMARK  199  A    between atoms: _510  and  _511
REMARK  200  A    between atoms: _514  and  _516
REMARK  201  A    between atoms: _516  and  _517
REMARK  202  A    between atoms: _516  and  _519
REMARK  203  A    between atoms: _519  and  _520
REMARK  204  A    between atoms: _530  and  _532
REMARK  205  A    between atoms: _532  and  _533
REMARK  206  A    between atoms: _532  and  _535
REMARK  207  A    between atoms: _535  and  _536
REMARK  208  A    between atoms: _536  and  _537
REMARK  209  A    between atoms: _539  and  _541
REMARK  210  A    between atoms: _541  and  _542
REMARK  211  A    between atoms: _541  and  _544
REMARK  212  A    between atoms: _544  and  _545
REMARK  213  A    between atoms: _548  and  _550
REMARK  214  A    between atoms: _550  and  _551
REMARK  215  A    between atoms: _550  and  _553
REMARK  216  A    between atoms: _553  and  _554
REMARK  217  A    between atoms: _557  and  _559
REMARK  218  A    between atoms: _559  and  _560
REMARK  219  A    between atoms: _563  and  _565
REMARK  220  A    between atoms: _565  and  _566
REMARK  221  A    between atoms: _568  and  _570
REMARK  222  A    between atoms: _570  and  _571
REMARK  223  A    between atoms: _570  and  _573
REMARK  224  A    between atoms: _573  and  _574
REMARK  225  A    between atoms: _579  and  _581
REMARK  226  A    between atoms: _581  and  _582
REMARK  227  A    between atoms: _581  and  _584
REMARK  228  A    between atoms: _584  and  _585
REMARK                            x       y       z     vdW  Elec       q    Type
REMARK                         _______ _______ _______ _____ _____    ______ ____
ROOT
ATOM      1  O   HOH     1     -11.855  19.621 -15.677  0.00  0.00    +0.000 OA
ENDROOT
TORSDOF 0
REMARK  Name = ../refined-set-2016/4c1u/4c1u_pocket.pdb
REMARK  228 active torsions:
REMARK  status: ('A' for Active; 'I' for Inactive)
REMARK    1  A    between atoms: _1  and  _3
REMARK    2  A    between atoms: _3  and  _4
REMARK    3  A    between atoms: _3  and  _6
REMARK    4  A    between atoms: _6  and  _7
REMARK    5  A    between atoms: _12  and  _14
REMARK    6  A    between atoms: _14  and  _15
REMARK    7  A    between atoms: _14  and  _17
REMARK    8  A    between atoms: _17  and  _18
REMARK    9  A    between atoms: _23  and  _25
REMARK   10  A    between atoms: _25  and  _26
REMARK   11  A    between atoms: _29  and  _31
REMARK   12  A    between atoms: _31  and  _32
REMARK   13  A    between atoms: _31  and  _34
REMARK   14  A    between atoms: _34  and  _35
REMARK   15  A    between atoms: _37  and  _39
REMARK   16  A    between atoms: _39  and  _40
REMARK   17  A    between atoms: _43  and  _45
REMARK   18  A    between atoms: _45  and  _46
REMARK   19  A    between atoms: _48  and  _50
REMARK   20  A    between atoms: _50  and  _51
REMARK   21  A    between atoms: _50  and  _53
REMARK   22  A    between atoms: _53  and  _54
REMARK   23  A    between atoms: _54  and  _55
REMARK   24  A    between atoms: _55  and  _56
REMARK   25  A    between atoms: _65  and  _67
REMARK   26  A    between atoms: _67  and  _68
REMARK   27  A    between atoms: _67  and  _70
REMARK   28  A    between atoms: _70  and  _71
REMARK   29  A    between atoms: _81  and  _83
REMARK   30  A    between atoms: _83  and  _84
REMARK   31  A    between atoms: _83  and  _86
REMARK   32  A    between atoms: _86  and  _87
REMARK   33  A    between atoms: _90  and  _92
REMARK   34  A    between atoms: _92  and  _93
REMARK   35  A    between atoms: _92  and  _95
REMARK   36  A    between atoms: _95  and  _96
REMARK   37  A    between atoms: _96  and  _97
REMARK   38  A    between atoms: _102  and  _104
REMARK   39  A    between atoms: _104  and  _105
REMARK   40  A    between atoms: _104  and  _107
REMARK   41  A    between atoms: _107  and  _108
REMARK   42  A    between atoms: _113  and  _115
REMARK   43  A    between atoms: _115  and  _116
REMARK   44  A    between atoms: _115  and  _118
REMARK   45  A    between atoms: _118  and  _119
REMARK   46  A    between atoms: _119  and  _120
REMARK   47  A    between atoms: _123  and  _125
REMARK   48  A    between atoms: _125  and  _126
REMARK   49  A    between atoms: _125  and  _128
REMARK   50  A    between atoms: _128  and  _129
REMARK   51  A    between atoms: _135  and  _137
REMARK   52  A    between atoms: _137  and  _138
REMARK   53  A    between atoms: _141  and  _143
REMARK   54  A    between atoms: _143  and  _144
REMARK   55  A    between atoms: _143  and  _146
REMARK   56  A    between atoms: _146  and  _147
REMARK   57  A    between atoms: _147  and  _148
REMARK   58  A    between atoms: _150  and  _152
REMARK   59  A    between atoms: _152  and  _153
REMARK   60  A    between atoms: _152  and  _155
REMARK   61  A    between atoms: _155  and  _156
REMARK   62  A    between atoms: _158  and  _160
REMARK   63  A    between atoms: _160  and  _161
REMARK   64  A    between atoms: _160  and  _163
REMARK   65  A    between atoms: _163  and  _164
REMARK   66  A    between atoms: _167  and  _169
REMARK   67  A    between atoms: _169  and  _170
REMARK   68  A    between atoms: _169  and  _172
REMARK   69  A    between atoms: _172  and  _173
REMARK   70  A    between atoms: _173  and  _174
REMARK   71  A    between atoms: _174  and  _175
REMARK   72  A    between atoms: _175  and  _176
REMARK   73  A    between atoms: _180  and  _182
REMARK   74  A    between atoms: _182  and  _183
REMARK   75  A    between atoms: _182  and  _185
REMARK   76  A    between atoms: _188  and  _190
REMARK   77  A    between atoms: _190  and  _191
REMARK   78  A    between atoms: _190  and  _193
REMARK   79  A    between atoms: _193  and  _194
REMARK   80  A    between atoms: _196  and  _198
REMARK   81  A    between atoms: _198  and  _199
REMARK   82  A    between atoms: _198  and  _201
REMARK   83  A    between atoms: _204  and  _206
REMARK   84  A    between atoms: _206  and  _207
REMARK   85  A    between atoms: _206  and  _209
REMARK   86  A    between atoms: _209  and  _210
REMARK   87  A    between atoms: _210  and  _211
REMARK   88  A    between atoms: _214  and  _216
REMARK   89  A    between atoms: _216  and  _217
REMARK   90  A    between atoms: _216  and  _219
REMARK   91  A    between atoms: _219  and  _220
REMARK   92  A    between atoms: _223  and  _225
REMARK   93  A    between atoms: _225  and  _226
REMARK   94  A    between atoms: _229  and  _231
REMARK   95  A    between atoms: _231  and  _232
REMARK   96  A    between atoms: _231  and  _234
REMARK   97  A    between atoms: _234  and  _235
REMARK   98  A    between atoms: _246  and  _247
REMARK   99  A    between atoms: _252  and  _254
REMARK  100  A    between atoms: _254  and  _255
REMARK  101  A    between atoms: _258  and  _260
REMARK  102  A    between atoms: _260  and  _261
REMARK  103  A    between atoms: _260  and  _263
REMARK  104  A    between atoms: _263  and  _264
REMARK  105  A    between atoms: _269  and  _271
REMARK  106  A    between atoms: _271  and  _272
REMARK  107  A    between atoms: _271  and  _274
REMARK  108  A    between atoms: _274  and  _275
REMARK  109  A    between atoms: _280  and  _281
REMARK  110  A    between atoms: _283  and  _285
REMARK  111  A    between atoms: _285  and  _286
REMARK  112  A    between atoms: _289  and  _291
REMARK  113  A    between atoms: _291  and  _292
REMARK  114  A    between atoms: _291  and  _294
REMARK  115  A    between atoms: _294  and  _295
REMARK  116  A    between atoms: _295  and  _296
REMARK  117  A    between atoms: _301  and  _303
REMARK  118  A    between atoms: _303  and  _304
REMARK  119  A    between atoms: _303  and  _306
REMARK  120  A    between atoms: _306  and  _307
REMARK  121  A    between atoms: _307  and  _308
REMARK  122  A    between atoms: _310  and  _312
REMARK  123  A    between atoms: _312  and  _313
REMARK  124  A    between atoms: _315  and  _317
REMARK  125  A    between atoms: _317  and  _318
REMARK  126  A    between atoms: _321  and  _323
REMARK  127  A    between atoms: _323  and  _324
REMARK  128  A    between atoms: _323  and  _326
REMARK  129  A    between atoms: _326  and  _327
REMARK  130  A    between atoms: _337  and  _339
REMARK  131  A    between atoms: _339  and  _340
REMARK  132  A    between atoms: _339  and  _342
REMARK  133  A    between atoms: _342  and  _343
REMARK  134  A    between atoms: _343  and  _344
REMARK  135  A    between atoms: _347  and  _349
REMARK  136  A    between atoms: _349  and  _350
REMARK  137  A    between atoms: _352  and  _354
REMARK  138  A    between atoms: _354  and  _355
REMARK  139  A    between atoms: _354  and  _357
REMARK  140  A    between atoms: _360  and  _362
REMARK  141  A    between atoms: _362  and  _363
REMARK  142  A    between atoms: _362  and  _365
REMARK  143  A    between atoms: _365  and  _366
REMARK  144  A    between atoms: _366  and  _367
REMARK  145  A    between atoms: _369  and  _371
REMARK  146  A    between atoms: _371  and  _372
REMARK  147  A    between atoms: _374  and  _376
REMARK  148  A    between atoms: _376  and  _377
REMARK  149  A    between atoms: _379  and  _381
REMARK  150  A    between atoms: _381  and  _382
REMARK  151  A    between atoms: _381  and  _384
REMARK  152  A    between atoms: _387  and  _389
REMARK  153  A    between atoms: _389  and  _390
REMARK  154  A    between atoms: _389  and  _392
REMARK  155  A    between atoms: _392  and  _393
REMARK  156  A    between atoms: _396  and  _398
REMARK  157  A    between atoms: _398  and  _399
REMARK  158  A    between atoms: _398  and  _401
REMARK  159  A    between atoms: _401  and  _402
REMARK  160  A    between atoms: _407  and  _408
REMARK  161  A    between atoms: _410  and  _412
REMARK  162  A    between atoms: _412  and  _413
REMARK  163  A    between atoms: _412  and  _415
REMARK  164  A    between atoms: _415  and  _416
REMARK  165  A    between atoms: _422  and  _424
REMARK  166  A    between atoms: _424  and  _425
REMARK  167  A    between atoms: _424  and  _427
REMARK  168  A    between atoms: _427  and  _428
REMARK  169  A    between atoms: _428  and  _429
REMARK  170  A    between atoms: _434  and  _436
REMARK  171  A    between atoms: _436  and  _437
REMARK  172  A    between atoms: _436  and  _439
REMARK  173  A    between atoms: _439  and  _440
REMARK  174  A    between atoms: _445  and  _446
REMARK  175  A    between atoms: _448  and  _450
REMARK  176  A    between atoms: _450  and  _451
REMARK  177  A    between atoms: _454  and  _456
REMARK  178  A    between atoms: _456  and  _457
REMARK  179  A    between atoms: _456  and  _459
REMARK  180  A    between atoms: _459  and  _460
REMARK  181  A    between atoms: _466  and  _468
REMARK  182  A    between atoms: _468  and  _469
REMARK  183  A    between atoms: _468  and  _471
REMARK  184  A    between atoms: _471  and  _472
REMARK  185  A    between atoms: _474  and  _476
REMARK  186  A    between atoms: _476  and  _477
REMARK  187  A    between atoms: _476  and  _479
REMARK  188  A    between atoms: _479  and  _480
REMARK  189  A    between atoms: _483  and  _485
REMARK  190  A    between atoms: _485  and  _486
REMARK  191  A    between atoms: _485  and  _488
REMARK  192  A    between atoms: _488  and  _489
REMARK  193  A    between atoms: _493  and  _494
REMARK  194  A    between atoms: _499  and  _501
REMARK  195  A    between atoms: _501  and  _502
REMARK  196  A    between atoms: _505  and  _507
REMARK  197  A    between atoms: _507  and  _508
REMARK  198  A    between atoms: _507  and  _510
REMARK  199  A    between atoms: _510  and  _511
REMARK  200  A    between atoms: _514  and  _516
REMARK  201  A    between atoms: _516  and  _517
REMARK  202  A    between atoms: _516  and  _519
REMARK  203  A    between atoms: _519  and  _520
REMARK  204  A    between atoms: _530  and  _532
REMARK  205  A    between atoms: _532  and  _533
REMARK  206  A    between atoms: _532  and  _535
REMARK  207  A    between atoms: _535  and  _536
REMARK  208  A    between atoms: _536  and  _537
REMARK  209  A    between atoms: _539  and  _541
REMARK  210  A    between atoms: _541  and  _542
REMARK  211  A    between atoms: _541  and  _544
REMARK  212  A    between atoms: _544  and  _545
REMARK  213  A    between atoms: _548  and  _550
REMARK  214  A    between atoms: _550  and  _551
REMARK  215  A    between atoms: _550  and  _553
REMARK  216  A    between atoms: _553  and  _554
REMARK  217  A    between atoms: _557  and  _559
REMARK  218  A    between atoms: _559  and  _560
REMARK  219  A    between atoms: _563  and  _565
REMARK  220  A    between atoms: _565  and  _566
REMARK  221  A    between atoms: _568  and  _570
REMARK  222  A    between atoms: _570  and  _571
REMARK  223  A    between atoms: _570  and  _573
REMARK  224  A    between atoms: _573  and  _574
REMARK  225  A    between atoms: _579  and  _581
REMARK  226  A    between atoms: _581  and  _582
REMARK  227  A    between atoms: _581  and  _584
REMARK  228  A    between atoms: _584  and  _585
REMARK                            x       y       z     vdW  Elec       q    Type
REMARK                         _______ _______ _______ _____ _____    ______ ____
ROOT
ATOM      1  O   HOH     1     -22.294  20.201  -9.396  0.00  0.00    +0.000 OA
ENDROOT
TORSDOF 0
REMARK  Name = ../refined-set-2016/4c1u/4c1u_pocket.pdb
REMARK  228 active torsions:
REMARK  status: ('A' for Active; 'I' for Inactive)
REMARK    1  A    between atoms: _1  and  _3
REMARK    2  A    between atoms: _3  and  _4
REMARK    3  A    between atoms: _3  and  _6
REMARK    4  A    between atoms: _6  and  _7
REMARK    5  A    between atoms: _12  and  _14
REMARK    6  A    between atoms: _14  and  _15
REMARK    7  A    between atoms: _14  and  _17
REMARK    8  A    between atoms: _17  and  _18
REMARK    9  A    between atoms: _23  and  _25
REMARK   10  A    between atoms: _25  and  _26
REMARK   11  A    between atoms: _29  and  _31
REMARK   12  A    between atoms: _31  and  _32
REMARK   13  A    between atoms: _31  and  _34
REMARK   14  A    between atoms: _34  and  _35
REMARK   15  A    between atoms: _37  and  _39
REMARK   16  A    between atoms: _39  and  _40
REMARK   17  A    between atoms: _43  and  _45
REMARK   18  A    between atoms: _45  and  _46
REMARK   19  A    between atoms: _48  and  _50
REMARK   20  A    between atoms: _50  and  _51
REMARK   21  A    between atoms: _50  and  _53
REMARK   22  A    between atoms: _53  and  _54
REMARK   23  A    between atoms: _54  and  _55
REMARK   24  A    between atoms: _55  and  _56
REMARK   25  A    between atoms: _65  and  _67
REMARK   26  A    between atoms: _67  and  _68
REMARK   27  A    between atoms: _67  and  _70
REMARK   28  A    between atoms: _70  and  _71
REMARK   29  A    between atoms: _81  and  _83
REMARK   30  A    between atoms: _83  and  _84
REMARK   31  A    between atoms: _83  and  _86
REMARK   32  A    between atoms: _86  and  _87
REMARK   33  A    between atoms: _90  and  _92
REMARK   34  A    between atoms: _92  and  _93
REMARK   35  A    between atoms: _92  and  _95
REMARK   36  A    between atoms: _95  and  _96
REMARK   37  A    between atoms: _96  and  _97
REMARK   38  A    between atoms: _102  and  _104
REMARK   39  A    between atoms: _104  and  _105
REMARK   40  A    between atoms: _104  and  _107
REMARK   41  A    between atoms: _107  and  _108
REMARK   42  A    between atoms: _113  and  _115
REMARK   43  A    between atoms: _115  and  _116
REMARK   44  A    between atoms: _115  and  _118
REMARK   45  A    between atoms: _118  and  _119
REMARK   46  A    between atoms: _119  and  _120
REMARK   47  A    between atoms: _123  and  _125
REMARK   48  A    between atoms: _125  and  _126
REMARK   49  A    between atoms: _125  and  _128
REMARK   50  A    between atoms: _128  and  _129
REMARK   51  A    between atoms: _135  and  _137
REMARK   52  A    between atoms: _137  and  _138
REMARK   53  A    between atoms: _141  and  _143
REMARK   54  A    between atoms: _143  and  _144
REMARK   55  A    between atoms: _143  and  _146
REMARK   56  A    between atoms: _146  and  _147
REMARK   57  A    between atoms: _147  and  _148
REMARK   58  A    between atoms: _150  and  _152
REMARK   59  A    between atoms: _152  and  _153
REMARK   60  A    between atoms: _152  and  _155
REMARK   61  A    between atoms: _155  and  _156
REMARK   62  A    between atoms: _158  and  _160
REMARK   63  A    between atoms: _160  and  _161
REMARK   64  A    between atoms: _160  and  _163
REMARK   65  A    between atoms: _163  and  _164
REMARK   66  A    between atoms: _167  and  _169
REMARK   67  A    between atoms: _169  and  _170
REMARK   68  A    between atoms: _169  and  _172
REMARK   69  A    between atoms: _172  and  _173
REMARK   70  A    between atoms: _173  and  _174
REMARK   71  A    between atoms: _174  and  _175
REMARK   72  A    between atoms: _175  and  _176
REMARK   73  A    between atoms: _180  and  _182
REMARK   74  A    between atoms: _182  and  _183
REMARK   75  A    between atoms: _182  and  _185
REMARK   76  A    between atoms: _188  and  _190
REMARK   77  A    between atoms: _190  and  _191
REMARK   78  A    between atoms: _190  and  _193
REMARK   79  A    between atoms: _193  and  _194
REMARK   80  A    between atoms: _196  and  _198
REMARK   81  A    between atoms: _198  and  _199
REMARK   82  A    between atoms: _198  and  _201
REMARK   83  A    between atoms: _204  and  _206
REMARK   84  A    between atoms: _206  and  _207
REMARK   85  A    between atoms: _206  and  _209
REMARK   86  A    between atoms: _209  and  _210
REMARK   87  A    between atoms: _210  and  _211
REMARK   88  A    between atoms: _214  and  _216
REMARK   89  A    between atoms: _216  and  _217
REMARK   90  A    between atoms: _216  and  _219
REMARK   91  A    between atoms: _219  and  _220
REMARK   92  A    between atoms: _223  and  _225
REMARK   93  A    between atoms: _225  and  _226
REMARK   94  A    between atoms: _229  and  _231
REMARK   95  A    between atoms: _231  and  _232
REMARK   96  A    between atoms: _231  and  _234
REMARK   97  A    between atoms: _234  and  _235
REMARK   98  A    between atoms: _246  and  _247
REMARK   99  A    between atoms: _252  and  _254
REMARK  100  A    between atoms: _254  and  _255
REMARK  101  A    between atoms: _258  and  _260
REMARK  102  A    between atoms: _260  and  _261
REMARK  103  A    between atoms: _260  and  _263
REMARK  104  A    between atoms: _263  and  _264
REMARK  105  A    between atoms: _269  and  _271
REMARK  106  A    between atoms: _271  and  _272
REMARK  107  A    between atoms: _271  and  _274
REMARK  108  A    between atoms: _274  and  _275
REMARK  109  A    between atoms: _280  and  _281
REMARK  110  A    between atoms: _283  and  _285
REMARK  111  A    between atoms: _285  and  _286
REMARK  112  A    between atoms: _289  and  _291
REMARK  113  A    between atoms: _291  and  _292
REMARK  114  A    between atoms: _291  and  _294
REMARK  115  A    between atoms: _294  and  _295
REMARK  116  A    between atoms: _295  and  _296
REMARK  117  A    between atoms: _301  and  _303
REMARK  118  A    between atoms: _303  and  _304
REMARK  119  A    between atoms: _303  and  _306
REMARK  120  A    between atoms: _306  and  _307
REMARK  121  A    between atoms: _307  and  _308
REMARK  122  A    between atoms: _310  and  _312
REMARK  123  A    between atoms: _312  and  _313
REMARK  124  A    between atoms: _315  and  _317
REMARK  125  A    between atoms: _317  and  _318
REMARK  126  A    between atoms: _321  and  _323
REMARK  127  A    between atoms: _323  and  _324
REMARK  128  A    between atoms: _323  and  _326
REMARK  129  A    between atoms: _326  and  _327
REMARK  130  A    between atoms: _337  and  _339
REMARK  131  A    between atoms: _339  and  _340
REMARK  132  A    between atoms: _339  and  _342
REMARK  133  A    between atoms: _342  and  _343
REMARK  134  A    between atoms: _343  and  _344
REMARK  135  A    between atoms: _347  and  _349
REMARK  136  A    between atoms: _349  and  _350
REMARK  137  A    between atoms: _352  and  _354
REMARK  138  A    between atoms: _354  and  _355
REMARK  139  A    between atoms: _354  and  _357
REMARK  140  A    between atoms: _360  and  _362
REMARK  141  A    between atoms: _362  and  _363
REMARK  142  A    between atoms: _362  and  _365
REMARK  143  A    between atoms: _365  and  _366
REMARK  144  A    between atoms: _366  and  _367
REMARK  145  A    between atoms: _369  and  _371
REMARK  146  A    between atoms: _371  and  _372
REMARK  147  A    between atoms: _374  and  _376
REMARK  148  A    between atoms: _376  and  _377
REMARK  149  A    between atoms: _379  and  _381
REMARK  150  A    between atoms: _381  and  _382
REMARK  151  A    between atoms: _381  and  _384
REMARK  152  A    between atoms: _387  and  _389
REMARK  153  A    between atoms: _389  and  _390
REMARK  154  A    between atoms: _389  and  _392
REMARK  155  A    between atoms: _392  and  _393
REMARK  156  A    between atoms: _396  and  _398
REMARK  157  A    between atoms: _398  and  _399
REMARK  158  A    between atoms: _398  and  _401
REMARK  159  A    between atoms: _401  and  _402
REMARK  160  A    between atoms: _407  and  _408
REMARK  161  A    between atoms: _410  and  _412
REMARK  162  A    between atoms: _412  and  _413
REMARK  163  A    between atoms: _412  and  _415
REMARK  164  A    between atoms: _415  and  _416
REMARK  165  A    between atoms: _422  and  _424
REMARK  166  A    between atoms: _424  and  _425
REMARK  167  A    between atoms: _424  and  _427
REMARK  168  A    between atoms: _427  and  _428
REMARK  169  A    between atoms: _428  and  _429
REMARK  170  A    between atoms: _434  and  _436
REMARK  171  A    between atoms: _436  and  _437
REMARK  172  A    between atoms: _436  and  _439
REMARK  173  A    between atoms: _439  and  _440
REMARK  174  A    between atoms: _445  and  _446
REMARK  175  A    between atoms: _448  and  _450
REMARK  176  A    between atoms: _450  and  _451
REMARK  177  A    between atoms: _454  and  _456
REMARK  178  A    between atoms: _456  and  _457
REMARK  179  A    between atoms: _456  and  _459
REMARK  180  A    between atoms: _459  and  _460
REMARK  181  A    between atoms: _466  and  _468
REMARK  182  A    between atoms: _468  and  _469
REMARK  183  A    between atoms: _468  and  _471
REMARK  184  A    between atoms: _471  and  _472
REMARK  185  A    between atoms: _474  and  _476
REMARK  186  A    between atoms: _476  and  _477
REMARK  187  A    between atoms: _476  and  _479
REMARK  188  A    between atoms: _479  and  _480
REMARK  189  A    between atoms: _483  and  _485
REMARK  190  A    between atoms: _485  and  _486
REMARK  191  A    between atoms: _485  and  _488
REMARK  192  A    between atoms: _488  and  _489
REMARK  193  A    between atoms: _493  and  _494
REMARK  194  A    between atoms: _499  and  _501
REMARK  195  A    between atoms: _501  and  _502
REMARK  196  A    between atoms: _505  and  _507
REMARK  197  A    between atoms: _507  and  _508
REMARK  198  A    between atoms: _507  and  _510
REMARK  199  A    between atoms: _510  and  _511
REMARK  200  A    between atoms: _514  and  _516
REMARK  201  A    between atoms: _516  and  _517
REMARK  202  A    between atoms: _516  and  _519
REMARK  203  A    between atoms: _519  and  _520
REMARK  204  A    between atoms: _530  and  _532
REMARK  205  A    between atoms: _532  and  _533
REMARK  206  A    between atoms: _532  and  _535
REMARK  207  A    between atoms: _535  and  _536
REMARK  208  A    between atoms: _536  and  _537
REMARK  209  A    between atoms: _539  and  _541
REMARK  210  A    between atoms: _541  and  _542
REMARK  211  A    between atoms: _541  and  _544
REMARK  212  A    between atoms: _544  and  _545
REMARK  213  A    between atoms: _548  and  _550
REMARK  214  A    between atoms: _550  and  _551
REMARK  215  A    between atoms: _550  and  _553
REMARK  216  A    between atoms: _553  and  _554
REMARK  217  A    between atoms: _557  and  _559
REMARK  218  A    between atoms: _559  and  _560
REMARK  219  A    between atoms: _563  and  _565
REMARK  220  A    between atoms: _565  and  _566
REMARK  221  A    between atoms: _568  and  _570
REMARK  222  A    between atoms: _570  and  _571
REMARK  223  A    between atoms: _570  and  _573
REMARK  224  A    between atoms: _573  and  _574
REMARK  225  A    between atoms: _579  and  _581
REMARK  226  A    between atoms: _581  and  _582
REMARK  227  A    between atoms: _581  and  _584
REMARK  228  A    between atoms: _584  and  _585
REMARK                            x       y       z     vdW  Elec       q    Type
REMARK                         _______ _______ _______ _____ _____    ______ ____
ROOT
ATOM      1  O   HOH     1     -15.629  16.123  -7.796  0.00  0.00    +0.000 OA
ENDROOT
TORSDOF 0
REMARK  Name = ../refined-set-2016/4c1u/4c1u_pocket.pdb
REMARK  228 active torsions:
REMARK  status: ('A' for Active; 'I' for Inactive)
REMARK    1  A    between atoms: _1  and  _3
REMARK    2  A    between atoms: _3  and  _4
REMARK    3  A    between atoms: _3  and  _6
REMARK    4  A    between atoms: _6  and  _7
REMARK    5  A    between atoms: _12  and  _14
REMARK    6  A    between atoms: _14  and  _15
REMARK    7  A    between atoms: _14  and  _17
REMARK    8  A    between atoms: _17  and  _18
REMARK    9  A    between atoms: _23  and  _25
REMARK   10  A    between atoms: _25  and  _26
REMARK   11  A    between atoms: _29  and  _31
REMARK   12  A    between atoms: _31  and  _32
REMARK   13  A    between atoms: _31  and  _34
REMARK   14  A    between atoms: _34  and  _35
REMARK   15  A    between atoms: _37  and  _39
REMARK   16  A    between atoms: _39  and  _40
REMARK   17  A    between atoms: _43  and  _45
REMARK   18  A    between atoms: _45  and  _46
REMARK   19  A    between atoms: _48  and  _50
REMARK   20  A    between atoms: _50  and  _51
REMARK   21  A    between atoms: _50  and  _53
REMARK   22  A    between atoms: _53  and  _54
REMARK   23  A    between atoms: _54  and  _55
REMARK   24  A    between atoms: _55  and  _56
REMARK   25  A    between atoms: _65  and  _67
REMARK   26  A    between atoms: _67  and  _68
REMARK   27  A    between atoms: _67  and  _70
REMARK   28  A    between atoms: _70  and  _71
REMARK   29  A    between atoms: _81  and  _83
REMARK   30  A    between atoms: _83  and  _84
REMARK   31  A    between atoms: _83  and  _86
REMARK   32  A    between atoms: _86  and  _87
REMARK   33  A    between atoms: _90  and  _92
REMARK   34  A    between atoms: _92  and  _93
REMARK   35  A    between atoms: _92  and  _95
REMARK   36  A    between atoms: _95  and  _96
REMARK   37  A    between atoms: _96  and  _97
REMARK   38  A    between atoms: _102  and  _104
REMARK   39  A    between atoms: _104  and  _105
REMARK   40  A    between atoms: _104  and  _107
REMARK   41  A    between atoms: _107  and  _108
REMARK   42  A    between atoms: _113  and  _115
REMARK   43  A    between atoms: _115  and  _116
REMARK   44  A    between atoms: _115  and  _118
REMARK   45  A    between atoms: _118  and  _119
REMARK   46  A    between atoms: _119  and  _120
REMARK   47  A    between atoms: _123  and  _125
REMARK   48  A    between atoms: _125  and  _126
REMARK   49  A    between atoms: _125  and  _128
REMARK   50  A    between atoms: _128  and  _129
REMARK   51  A    between atoms: _135  and  _137
REMARK   52  A    between atoms: _137  and  _138
REMARK   53  A    between atoms: _141  and  _143
REMARK   54  A    between atoms: _143  and  _144
REMARK   55  A    between atoms: _143  and  _146
REMARK   56  A    between atoms: _146  and  _147
REMARK   57  A    between atoms: _147  and  _148
REMARK   58  A    between atoms: _150  and  _152
REMARK   59  A    between atoms: _152  and  _153
REMARK   60  A    between atoms: _152  and  _155
REMARK   61  A    between atoms: _155  and  _156
REMARK   62  A    between atoms: _158  and  _160
REMARK   63  A    between atoms: _160  and  _161
REMARK   64  A    between atoms: _160  and  _163
REMARK   65  A    between atoms: _163  and  _164
REMARK   66  A    between atoms: _167  and  _169
REMARK   67  A    between atoms: _169  and  _170
REMARK   68  A    between atoms: _169  and  _172
REMARK   69  A    between atoms: _172  and  _173
REMARK   70  A    between atoms: _173  and  _174
REMARK   71  A    between atoms: _174  and  _175
REMARK   72  A    between atoms: _175  and  _176
REMARK   73  A    between atoms: _180  and  _182
REMARK   74  A    between atoms: _182  and  _183
REMARK   75  A    between atoms: _182  and  _185
REMARK   76  A    between atoms: _188  and  _190
REMARK   77  A    between atoms: _190  and  _191
REMARK   78  A    between atoms: _190  and  _193
REMARK   79  A    between atoms: _193  and  _194
REMARK   80  A    between atoms: _196  and  _198
REMARK   81  A    between atoms: _198  and  _199
REMARK   82  A    between atoms: _198  and  _201
REMARK   83  A    between atoms: _204  and  _206
REMARK   84  A    between atoms: _206  and  _207
REMARK   85  A    between atoms: _206  and  _209
REMARK   86  A    between atoms: _209  and  _210
REMARK   87  A    between atoms: _210  and  _211
REMARK   88  A    between atoms: _214  and  _216
REMARK   89  A    between atoms: _216  and  _217
REMARK   90  A    between atoms: _216  and  _219
REMARK   91  A    between atoms: _219  and  _220
REMARK   92  A    between atoms: _223  and  _225
REMARK   93  A    between atoms: _225  and  _226
REMARK   94  A    between atoms: _229  and  _231
REMARK   95  A    between atoms: _231  and  _232
REMARK   96  A    between atoms: _231  and  _234
REMARK   97  A    between atoms: _234  and  _235
REMARK   98  A    between atoms: _246  and  _247
REMARK   99  A    between atoms: _252  and  _254
REMARK  100  A    between atoms: _254  and  _255
REMARK  101  A    between atoms: _258  and  _260
REMARK  102  A    between atoms: _260  and  _261
REMARK  103  A    between atoms: _260  and  _263
REMARK  104  A    between atoms: _263  and  _264
REMARK  105  A    between atoms: _269  and  _271
REMARK  106  A    between atoms: _271  and  _272
REMARK  107  A    between atoms: _271  and  _274
REMARK  108  A    between atoms: _274  and  _275
REMARK  109  A    between atoms: _280  and  _281
REMARK  110  A    between atoms: _283  and  _285
REMARK  111  A    between atoms: _285  and  _286
REMARK  112  A    between atoms: _289  and  _291
REMARK  113  A    between atoms: _291  and  _292
REMARK  114  A    between atoms: _291  and  _294
REMARK  115  A    between atoms: _294  and  _295
REMARK  116  A    between atoms: _295  and  _296
REMARK  117  A    between atoms: _301  and  _303
REMARK  118  A    between atoms: _303  and  _304
REMARK  119  A    between atoms: _303  and  _306
REMARK  120  A    between atoms: _306  and  _307
REMARK  121  A    between atoms: _307  and  _308
REMARK  122  A    between atoms: _310  and  _312
REMARK  123  A    between atoms: _312  and  _313
REMARK  124  A    between atoms: _315  and  _317
REMARK  125  A    between atoms: _317  and  _318
REMARK  126  A    between atoms: _321  and  _323
REMARK  127  A    between atoms: _323  and  _324
REMARK  128  A    between atoms: _323  and  _326
REMARK  129  A    between atoms: _326  and  _327
REMARK  130  A    between atoms: _337  and  _339
REMARK  131  A    between atoms: _339  and  _340
REMARK  132  A    between atoms: _339  and  _342
REMARK  133  A    between atoms: _342  and  _343
REMARK  134  A    between atoms: _343  and  _344
REMARK  135  A    between atoms: _347  and  _349
REMARK  136  A    between atoms: _349  and  _350
REMARK  137  A    between atoms: _352  and  _354
REMARK  138  A    between atoms: _354  and  _355
REMARK  139  A    between atoms: _354  and  _357
REMARK  140  A    between atoms: _360  and  _362
REMARK  141  A    between atoms: _362  and  _363
REMARK  142  A    between atoms: _362  and  _365
REMARK  143  A    between atoms: _365  and  _366
REMARK  144  A    between atoms: _366  and  _367
REMARK  145  A    between atoms: _369  and  _371
REMARK  146  A    between atoms: _371  and  _372
REMARK  147  A    between atoms: _374  and  _376
REMARK  148  A    between atoms: _376  and  _377
REMARK  149  A    between atoms: _379  and  _381
REMARK  150  A    between atoms: _381  and  _382
REMARK  151  A    between atoms: _381  and  _384
REMARK  152  A    between atoms: _387  and  _389
REMARK  153  A    between atoms: _389  and  _390
REMARK  154  A    between atoms: _389  and  _392
REMARK  155  A    between atoms: _392  and  _393
REMARK  156  A    between atoms: _396  and  _398
REMARK  157  A    between atoms: _398  and  _399
REMARK  158  A    between atoms: _398  and  _401
REMARK  159  A    between atoms: _401  and  _402
REMARK  160  A    between atoms: _407  and  _408
REMARK  161  A    between atoms: _410  and  _412
REMARK  162  A    between atoms: _412  and  _413
REMARK  163  A    between atoms: _412  and  _415
REMARK  164  A    between atoms: _415  and  _416
REMARK  165  A    between atoms: _422  and  _424
REMARK  166  A    between atoms: _424  and  _425
REMARK  167  A    between atoms: _424  and  _427
REMARK  168  A    between atoms: _427  and  _428
REMARK  169  A    between atoms: _428  and  _429
REMARK  170  A    between atoms: _434  and  _436
REMARK  171  A    between atoms: _436  and  _437
REMARK  172  A    between atoms: _436  and  _439
REMARK  173  A    between atoms: _439  and  _440
REMARK  174  A    between atoms: _445  and  _446
REMARK  175  A    between atoms: _448  and  _450
REMARK  176  A    between atoms: _450  and  _451
REMARK  177  A    between atoms: _454  and  _456
REMARK  178  A    between atoms: _456  and  _457
REMARK  179  A    between atoms: _456  and  _459
REMARK  180  A    between atoms: _459  and  _460
REMARK  181  A    between atoms: _466  and  _468
REMARK  182  A    between atoms: _468  and  _469
REMARK  183  A    between atoms: _468  and  _471
REMARK  184  A    between atoms: _471  and  _472
REMARK  185  A    between atoms: _474  and  _476
REMARK  186  A    between atoms: _476  and  _477
REMARK  187  A    between atoms: _476  and  _479
REMARK  188  A    between atoms: _479  and  _480
REMARK  189  A    between atoms: _483  and  _485
REMARK  190  A    between atoms: _485  and  _486
REMARK  191  A    between atoms: _485  and  _488
REMARK  192  A    between atoms: _488  and  _489
REMARK  193  A    between atoms: _493  and  _494
REMARK  194  A    between atoms: _499  and  _501
REMARK  195  A    between atoms: _501  and  _502
REMARK  196  A    between atoms: _505  and  _507
REMARK  197  A    between atoms: _507  and  _508
REMARK  198  A    between atoms: _507  and  _510
REMARK  199  A    between atoms: _510  and  _511
REMARK  200  A    between atoms: _514  and  _516
REMARK  201  A    between atoms: _516  and  _517
REMARK  202  A    between atoms: _516  and  _519
REMARK  203  A    between atoms: _519  and  _520
REMARK  204  A    between atoms: _530  and  _532
REMARK  205  A    between atoms: _532  and  _533
REMARK  206  A    between atoms: _532  and  _535
REMARK  207  A    between atoms: _535  and  _536
REMARK  208  A    between atoms: _536  and  _537
REMARK  209  A    between atoms: _539  and  _541
REMARK  210  A    between atoms: _541  and  _542
REMARK  211  A    between atoms: _541  and  _544
REMARK  212  A    between atoms: _544  and  _545
REMARK  213  A    between atoms: _548  and  _550
REMARK  214  A    between atoms: _550  and  _551
REMARK  215  A    between atoms: _550  and  _553
REMARK  216  A    between atoms: _553  and  _554
REMARK  217  A    between atoms: _557  and  _559
REMARK  218  A    between atoms: _559  and  _560
REMARK  219  A    between atoms: _563  and  _565
REMARK  220  A    between atoms: _565  and  _566
REMARK  221  A    between atoms: _568  and  _570
REMARK  222  A    between atoms: _570  and  _571
REMARK  223  A    between atoms: _570  and  _573
REMARK  224  A    between atoms: _573  and  _574
REMARK  225  A    between atoms: _579  and  _581
REMARK  226  A    between atoms: _581  and  _582
REMARK  227  A    between atoms: _581  and  _584
REMARK  228  A    between atoms: _584  and  _585
REMARK                            x       y       z     vdW  Elec       q    Type
REMARK                         _______ _______ _______ _____ _____    ______ ____
ROOT
ATOM      1  O   HOH     1     -15.560  16.948 -11.376  0.00  0.00    +0.000 OA
ENDROOT
TORSDOF 0
REMARK  Name = ../refined-set-2016/4c1u/4c1u_pocket.pdb
REMARK  228 active torsions:
REMARK  status: ('A' for Active; 'I' for Inactive)
REMARK    1  A    between atoms: _1  and  _3
REMARK    2  A    between atoms: _3  and  _4
REMARK    3  A    between atoms: _3  and  _6
REMARK    4  A    between atoms: _6  and  _7
REMARK    5  A    between atoms: _12  and  _14
REMARK    6  A    between atoms: _14  and  _15
REMARK    7  A    between atoms: _14  and  _17
REMARK    8  A    between atoms: _17  and  _18
REMARK    9  A    between atoms: _23  and  _25
REMARK   10  A    between atoms: _25  and  _26
REMARK   11  A    between atoms: _29  and  _31
REMARK   12  A    between atoms: _31  and  _32
REMARK   13  A    between atoms: _31  and  _34
REMARK   14  A    between atoms: _34  and  _35
REMARK   15  A    between atoms: _37  and  _39
REMARK   16  A    between atoms: _39  and  _40
REMARK   17  A    between atoms: _43  and  _45
REMARK   18  A    between atoms: _45  and  _46
REMARK   19  A    between atoms: _48  and  _50
REMARK   20  A    between atoms: _50  and  _51
REMARK   21  A    between atoms: _50  and  _53
REMARK   22  A    between atoms: _53  and  _54
REMARK   23  A    between atoms: _54  and  _55
REMARK   24  A    between atoms: _55  and  _56
REMARK   25  A    between atoms: _65  and  _67
REMARK   26  A    between atoms: _67  and  _68
REMARK   27  A    between atoms: _67  and  _70
REMARK   28  A    between atoms: _70  and  _71
REMARK   29  A    between atoms: _81  and  _83
REMARK   30  A    between atoms: _83  and  _84
REMARK   31  A    between atoms: _83  and  _86
REMARK   32  A    between atoms: _86  and  _87
REMARK   33  A    between atoms: _90  and  _92
REMARK   34  A    between atoms: _92  and  _93
REMARK   35  A    between atoms: _92  and  _95
REMARK   36  A    between atoms: _95  and  _96
REMARK   37  A    between atoms: _96  and  _97
REMARK   38  A    between atoms: _102  and  _104
REMARK   39  A    between atoms: _104  and  _105
REMARK   40  A    between atoms: _104  and  _107
REMARK   41  A    between atoms: _107  and  _108
REMARK   42  A    between atoms: _113  and  _115
REMARK   43  A    between atoms: _115  and  _116
REMARK   44  A    between atoms: _115  and  _118
REMARK   45  A    between atoms: _118  and  _119
REMARK   46  A    between atoms: _119  and  _120
REMARK   47  A    between atoms: _123  and  _125
REMARK   48  A    between atoms: _125  and  _126
REMARK   49  A    between atoms: _125  and  _128
REMARK   50  A    between atoms: _128  and  _129
REMARK   51  A    between atoms: _135  and  _137
REMARK   52  A    between atoms: _137  and  _138
REMARK   53  A    between atoms: _141  and  _143
REMARK   54  A    between atoms: _143  and  _144
REMARK   55  A    between atoms: _143  and  _146
REMARK   56  A    between atoms: _146  and  _147
REMARK   57  A    between atoms: _147  and  _148
REMARK   58  A    between atoms: _150  and  _152
REMARK   59  A    between atoms: _152  and  _153
REMARK   60  A    between atoms: _152  and  _155
REMARK   61  A    between atoms: _155  and  _156
REMARK   62  A    between atoms: _158  and  _160
REMARK   63  A    between atoms: _160  and  _161
REMARK   64  A    between atoms: _160  and  _163
REMARK   65  A    between atoms: _163  and  _164
REMARK   66  A    between atoms: _167  and  _169
REMARK   67  A    between atoms: _169  and  _170
REMARK   68  A    between atoms: _169  and  _172
REMARK   69  A    between atoms: _172  and  _173
REMARK   70  A    between atoms: _173  and  _174
REMARK   71  A    between atoms: _174  and  _175
REMARK   72  A    between atoms: _175  and  _176
REMARK   73  A    between atoms: _180  and  _182
REMARK   74  A    between atoms: _182  and  _183
REMARK   75  A    between atoms: _182  and  _185
REMARK   76  A    between atoms: _188  and  _190
REMARK   77  A    between atoms: _190  and  _191
REMARK   78  A    between atoms: _190  and  _193
REMARK   79  A    between atoms: _193  and  _194
REMARK   80  A    between atoms: _196  and  _198
REMARK   81  A    between atoms: _198  and  _199
REMARK   82  A    between atoms: _198  and  _201
REMARK   83  A    between atoms: _204  and  _206
REMARK   84  A    between atoms: _206  and  _207
REMARK   85  A    between atoms: _206  and  _209
REMARK   86  A    between atoms: _209  and  _210
REMARK   87  A    between atoms: _210  and  _211
REMARK   88  A    between atoms: _214  and  _216
REMARK   89  A    between atoms: _216  and  _217
REMARK   90  A    between atoms: _216  and  _219
REMARK   91  A    between atoms: _219  and  _220
REMARK   92  A    between atoms: _223  and  _225
REMARK   93  A    between atoms: _225  and  _226
REMARK   94  A    between atoms: _229  and  _231
REMARK   95  A    between atoms: _231  and  _232
REMARK   96  A    between atoms: _231  and  _234
REMARK   97  A    between atoms: _234  and  _235
REMARK   98  A    between atoms: _246  and  _247
REMARK   99  A    between atoms: _252  and  _254
REMARK  100  A    between atoms: _254  and  _255
REMARK  101  A    between atoms: _258  and  _260
REMARK  102  A    between atoms: _260  and  _261
REMARK  103  A    between atoms: _260  and  _263
REMARK  104  A    between atoms: _263  and  _264
REMARK  105  A    between atoms: _269  and  _271
REMARK  106  A    between atoms: _271  and  _272
REMARK  107  A    between atoms: _271  and  _274
REMARK  108  A    between atoms: _274  and  _275
REMARK  109  A    between atoms: _280  and  _281
REMARK  110  A    between atoms: _283  and  _285
REMARK  111  A    between atoms: _285  and  _286
REMARK  112  A    between atoms: _289  and  _291
REMARK  113  A    between atoms: _291  and  _292
REMARK  114  A    between atoms: _291  and  _294
REMARK  115  A    between atoms: _294  and  _295
REMARK  116  A    between atoms: _295  and  _296
REMARK  117  A    between atoms: _301  and  _303
REMARK  118  A    between atoms: _303  and  _304
REMARK  119  A    between atoms: _303  and  _306
REMARK  120  A    between atoms: _306  and  _307
REMARK  121  A    between atoms: _307  and  _308
REMARK  122  A    between atoms: _310  and  _312
REMARK  123  A    between atoms: _312  and  _313
REMARK  124  A    between atoms: _315  and  _317
REMARK  125  A    between atoms: _317  and  _318
REMARK  126  A    between atoms: _321  and  _323
REMARK  127  A    between atoms: _323  and  _324
REMARK  128  A    between atoms: _323  and  _326
REMARK  129  A    between atoms: _326  and  _327
REMARK  130  A    between atoms: _337  and  _339
REMARK  131  A    between atoms: _339  and  _340
REMARK  132  A    between atoms: _339  and  _342
REMARK  133  A    between atoms: _342  and  _343
REMARK  134  A    between atoms: _343  and  _344
REMARK  135  A    between atoms: _347  and  _349
REMARK  136  A    between atoms: _349  and  _350
REMARK  137  A    between atoms: _352  and  _354
REMARK  138  A    between atoms: _354  and  _355
REMARK  139  A    between atoms: _354  and  _357
REMARK  140  A    between atoms: _360  and  _362
REMARK  141  A    between atoms: _362  and  _363
REMARK  142  A    between atoms: _362  and  _365
REMARK  143  A    between atoms: _365  and  _366
REMARK  144  A    between atoms: _366  and  _367
REMARK  145  A    between atoms: _369  and  _371
REMARK  146  A    between atoms: _371  and  _372
REMARK  147  A    between atoms: _374  and  _376
REMARK  148  A    between atoms: _376  and  _377
REMARK  149  A    between atoms: _379  and  _381
REMARK  150  A    between atoms: _381  and  _382
REMARK  151  A    between atoms: _381  and  _384
REMARK  152  A    between atoms: _387  and  _389
REMARK  153  A    between atoms: _389  and  _390
REMARK  154  A    between atoms: _389  and  _392
REMARK  155  A    between atoms: _392  and  _393
REMARK  156  A    between atoms: _396  and  _398
REMARK  157  A    between atoms: _398  and  _399
REMARK  158  A    between atoms: _398  and  _401
REMARK  159  A    between atoms: _401  and  _402
REMARK  160  A    between atoms: _407  and  _408
REMARK  161  A    between atoms: _410  and  _412
REMARK  162  A    between atoms: _412  and  _413
REMARK  163  A    between atoms: _412  and  _415
REMARK  164  A    between atoms: _415  and  _416
REMARK  165  A    between atoms: _422  and  _424
REMARK  166  A    between atoms: _424  and  _425
REMARK  167  A    between atoms: _424  and  _427
REMARK  168  A    between atoms: _427  and  _428
REMARK  169  A    between atoms: _428  and  _429
REMARK  170  A    between atoms: _434  and  _436
REMARK  171  A    between atoms: _436  and  _437
REMARK  172  A    between atoms: _436  and  _439
REMARK  173  A    between atoms: _439  and  _440
REMARK  174  A    between atoms: _445  and  _446
REMARK  175  A    between atoms: _448  and  _450
REMARK  176  A    between atoms: _450  and  _451
REMARK  177  A    between atoms: _454  and  _456
REMARK  178  A    between atoms: _456  and  _457
REMARK  179  A    between atoms: _456  and  _459
REMARK  180  A    between atoms: _459  and  _460
REMARK  181  A    between atoms: _466  and  _468
REMARK  182  A    between atoms: _468  and  _469
REMARK  183  A    between atoms: _468  and  _471
REMARK  184  A    between atoms: _471  and  _472
REMARK  185  A    between atoms: _474  and  _476
REMARK  186  A    between atoms: _476  and  _477
REMARK  187  A    between atoms: _476  and  _479
REMARK  188  A    between atoms: _479  and  _480
REMARK  189  A    between atoms: _483  and  _485
REMARK  190  A    between atoms: _485  and  _486
REMARK  191  A    between atoms: _485  and  _488
REMARK  192  A    between atoms: _488  and  _489
REMARK  193  A    between atoms: _493  and  _494
REMARK  194  A    between atoms: _499  and  _501
REMARK  195  A    between atoms: _501  and  _502
REMARK  196  A    between atoms: _505  and  _507
REMARK  197  A    between atoms: _507  and  _508
REMARK  198  A    between atoms: _507  and  _510
REMARK  199  A    between atoms: _510  and  _511
REMARK  200  A    between atoms: _514  and  _516
REMARK  201  A    between atoms: _516  and  _517
REMARK  202  A    between atoms: _516  and  _519
REMARK  203  A    between atoms: _519  and  _520
REMARK  204  A    between atoms: _530  and  _532
REMARK  205  A    between atoms: _532  and  _533
REMARK  206  A    between atoms: _532  and  _535
REMARK  207  A    between atoms: _535  and  _536
REMARK  208  A    between atoms: _536  and  _537
REMARK  209  A    between atoms: _539  and  _541
REMARK  210  A    between atoms: _541  and  _542
REMARK  211  A    between atoms: _541  and  _544
REMARK  212  A    between atoms: _544  and  _545
REMARK  213  A    between atoms: _548  and  _550
REMARK  214  A    between atoms: _550  and  _551
REMARK  215  A    between atoms: _550  and  _553
REMARK  216  A    between atoms: _553  and  _554
REMARK  217  A    between atoms: _557  and  _559
REMARK  218  A    between atoms: _559  and  _560
REMARK  219  A    between atoms: _563  and  _565
REMARK  220  A    between atoms: _565  and  _566
REMARK  221  A    between atoms: _568  and  _570
REMARK  222  A    between atoms: _570  and  _571
REMARK  223  A    between atoms: _570  and  _573
REMARK  224  A    between atoms: _573  and  _574
REMARK  225  A    between atoms: _579  and  _581
REMARK  226  A    between atoms: _581  and  _582
REMARK  227  A    between atoms: _581  and  _584
REMARK  228  A    between atoms: _584  and  _585
REMARK                            x       y       z     vdW  Elec       q    Type
REMARK                         _______ _______ _______ _____ _____    ______ ____
ROOT
ATOM      1  O   HOH     1     -15.257  14.953  -4.425  0.00  0.00    +0.000 OA
ENDROOT
TORSDOF 0
REMARK  Name = ../refined-set-2016/4c1u/4c1u_pocket.pdb
REMARK  228 active torsions:
REMARK  status: ('A' for Active; 'I' for Inactive)
REMARK    1  A    between atoms: _1  and  _3
REMARK    2  A    between atoms: _3  and  _4
REMARK    3  A    between atoms: _3  and  _6
REMARK    4  A    between atoms: _6  and  _7
REMARK    5  A    between atoms: _12  and  _14
REMARK    6  A    between atoms: _14  and  _15
REMARK    7  A    between atoms: _14  and  _17
REMARK    8  A    between atoms: _17  and  _18
REMARK    9  A    between atoms: _23  and  _25
REMARK   10  A    between atoms: _25  and  _26
REMARK   11  A    between atoms: _29  and  _31
REMARK   12  A    between atoms: _31  and  _32
REMARK   13  A    between atoms: _31  and  _34
REMARK   14  A    between atoms: _34  and  _35
REMARK   15  A    between atoms: _37  and  _39
REMARK   16  A    between atoms: _39  and  _40
REMARK   17  A    between atoms: _43  and  _45
REMARK   18  A    between atoms: _45  and  _46
REMARK   19  A    between atoms: _48  and  _50
REMARK   20  A    between atoms: _50  and  _51
REMARK   21  A    between atoms: _50  and  _53
REMARK   22  A    between atoms: _53  and  _54
REMARK   23  A    between atoms: _54  and  _55
REMARK   24  A    between atoms: _55  and  _56
REMARK   25  A    between atoms: _65  and  _67
REMARK   26  A    between atoms: _67  and  _68
REMARK   27  A    between atoms: _67  and  _70
REMARK   28  A    between atoms: _70  and  _71
REMARK   29  A    between atoms: _81  and  _83
REMARK   30  A    between atoms: _83  and  _84
REMARK   31  A    between atoms: _83  and  _86
REMARK   32  A    between atoms: _86  and  _87
REMARK   33  A    between atoms: _90  and  _92
REMARK   34  A    between atoms: _92  and  _93
REMARK   35  A    between atoms: _92  and  _95
REMARK   36  A    between atoms: _95  and  _96
REMARK   37  A    between atoms: _96  and  _97
REMARK   38  A    between atoms: _102  and  _104
REMARK   39  A    between atoms: _104  and  _105
REMARK   40  A    between atoms: _104  and  _107
REMARK   41  A    between atoms: _107  and  _108
REMARK   42  A    between atoms: _113  and  _115
REMARK   43  A    between atoms: _115  and  _116
REMARK   44  A    between atoms: _115  and  _118
REMARK   45  A    between atoms: _118  and  _119
REMARK   46  A    between atoms: _119  and  _120
REMARK   47  A    between atoms: _123  and  _125
REMARK   48  A    between atoms: _125  and  _126
REMARK   49  A    between atoms: _125  and  _128
REMARK   50  A    between atoms: _128  and  _129
REMARK   51  A    between atoms: _135  and  _137
REMARK   52  A    between atoms: _137  and  _138
REMARK   53  A    between atoms: _141  and  _143
REMARK   54  A    between atoms: _143  and  _144
REMARK   55  A    between atoms: _143  and  _146
REMARK   56  A    between atoms: _146  and  _147
REMARK   57  A    between atoms: _147  and  _148
REMARK   58  A    between atoms: _150  and  _152
REMARK   59  A    between atoms: _152  and  _153
REMARK   60  A    between atoms: _152  and  _155
REMARK   61  A    between atoms: _155  and  _156
REMARK   62  A    between atoms: _158  and  _160
REMARK   63  A    between atoms: _160  and  _161
REMARK   64  A    between atoms: _160  and  _163
REMARK   65  A    between atoms: _163  and  _164
REMARK   66  A    between atoms: _167  and  _169
REMARK   67  A    between atoms: _169  and  _170
REMARK   68  A    between atoms: _169  and  _172
REMARK   69  A    between atoms: _172  and  _173
REMARK   70  A    between atoms: _173  and  _174
REMARK   71  A    between atoms: _174  and  _175
REMARK   72  A    between atoms: _175  and  _176
REMARK   73  A    between atoms: _180  and  _182
REMARK   74  A    between atoms: _182  and  _183
REMARK   75  A    between atoms: _182  and  _185
REMARK   76  A    between atoms: _188  and  _190
REMARK   77  A    between atoms: _190  and  _191
REMARK   78  A    between atoms: _190  and  _193
REMARK   79  A    between atoms: _193  and  _194
REMARK   80  A    between atoms: _196  and  _198
REMARK   81  A    between atoms: _198  and  _199
REMARK   82  A    between atoms: _198  and  _201
REMARK   83  A    between atoms: _204  and  _206
REMARK   84  A    between atoms: _206  and  _207
REMARK   85  A    between atoms: _206  and  _209
REMARK   86  A    between atoms: _209  and  _210
REMARK   87  A    between atoms: _210  and  _211
REMARK   88  A    between atoms: _214  and  _216
REMARK   89  A    between atoms: _216  and  _217
REMARK   90  A    between atoms: _216  and  _219
REMARK   91  A    between atoms: _219  and  _220
REMARK   92  A    between atoms: _223  and  _225
REMARK   93  A    between atoms: _225  and  _226
REMARK   94  A    between atoms: _229  and  _231
REMARK   95  A    between atoms: _231  and  _232
REMARK   96  A    between atoms: _231  and  _234
REMARK   97  A    between atoms: _234  and  _235
REMARK   98  A    between atoms: _246  and  _247
REMARK   99  A    between atoms: _252  and  _254
REMARK  100  A    between atoms: _254  and  _255
REMARK  101  A    between atoms: _258  and  _260
REMARK  102  A    between atoms: _260  and  _261
REMARK  103  A    between atoms: _260  and  _263
REMARK  104  A    between atoms: _263  and  _264
REMARK  105  A    between atoms: _269  and  _271
REMARK  106  A    between atoms: _271  and  _272
REMARK  107  A    between atoms: _271  and  _274
REMARK  108  A    between atoms: _274  and  _275
REMARK  109  A    between atoms: _280  and  _281
REMARK  110  A    between atoms: _283  and  _285
REMARK  111  A    between atoms: _285  and  _286
REMARK  112  A    between atoms: _289  and  _291
REMARK  113  A    between atoms: _291  and  _292
REMARK  114  A    between atoms: _291  and  _294
REMARK  115  A    between atoms: _294  and  _295
REMARK  116  A    between atoms: _295  and  _296
REMARK  117  A    between atoms: _301  and  _303
REMARK  118  A    between atoms: _303  and  _304
REMARK  119  A    between atoms: _303  and  _306
REMARK  120  A    between atoms: _306  and  _307
REMARK  121  A    between atoms: _307  and  _308
REMARK  122  A    between atoms: _310  and  _312
REMARK  123  A    between atoms: _312  and  _313
REMARK  124  A    between atoms: _315  and  _317
REMARK  125  A    between atoms: _317  and  _318
REMARK  126  A    between atoms: _321  and  _323
REMARK  127  A    between atoms: _323  and  _324
REMARK  128  A    between atoms: _323  and  _326
REMARK  129  A    between atoms: _326  and  _327
REMARK  130  A    between atoms: _337  and  _339
REMARK  131  A    between atoms: _339  and  _340
REMARK  132  A    between atoms: _339  and  _342
REMARK  133  A    between atoms: _342  and  _343
REMARK  134  A    between atoms: _343  and  _344
REMARK  135  A    between atoms: _347  and  _349
REMARK  136  A    between atoms: _349  and  _350
REMARK  137  A    between atoms: _352  and  _354
REMARK  138  A    between atoms: _354  and  _355
REMARK  139  A    between atoms: _354  and  _357
REMARK  140  A    between atoms: _360  and  _362
REMARK  141  A    between atoms: _362  and  _363
REMARK  142  A    between atoms: _362  and  _365
REMARK  143  A    between atoms: _365  and  _366
REMARK  144  A    between atoms: _366  and  _367
REMARK  145  A    between atoms: _369  and  _371
REMARK  146  A    between atoms: _371  and  _372
REMARK  147  A    between atoms: _374  and  _376
REMARK  148  A    between atoms: _376  and  _377
REMARK  149  A    between atoms: _379  and  _381
REMARK  150  A    between atoms: _381  and  _382
REMARK  151  A    between atoms: _381  and  _384
REMARK  152  A    between atoms: _387  and  _389
REMARK  153  A    between atoms: _389  and  _390
REMARK  154  A    between atoms: _389  and  _392
REMARK  155  A    between atoms: _392  and  _393
REMARK  156  A    between atoms: _396  and  _398
REMARK  157  A    between atoms: _398  and  _399
REMARK  158  A    between atoms: _398  and  _401
REMARK  159  A    between atoms: _401  and  _402
REMARK  160  A    between atoms: _407  and  _408
REMARK  161  A    between atoms: _410  and  _412
REMARK  162  A    between atoms: _412  and  _413
REMARK  163  A    between atoms: _412  and  _415
REMARK  164  A    between atoms: _415  and  _416
REMARK  165  A    between atoms: _422  and  _424
REMARK  166  A    between atoms: _424  and  _425
REMARK  167  A    between atoms: _424  and  _427
REMARK  168  A    between atoms: _427  and  _428
REMARK  169  A    between atoms: _428  and  _429
REMARK  170  A    between atoms: _434  and  _436
REMARK  171  A    between atoms: _436  and  _437
REMARK  172  A    between atoms: _436  and  _439
REMARK  173  A    between atoms: _439  and  _440
REMARK  174  A    between atoms: _445  and  _446
REMARK  175  A    between atoms: _448  and  _450
REMARK  176  A    between atoms: _450  and  _451
REMARK  177  A    between atoms: _454  and  _456
REMARK  178  A    between atoms: _456  and  _457
REMARK  179  A    between atoms: _456  and  _459
REMARK  180  A    between atoms: _459  and  _460
REMARK  181  A    between atoms: _466  and  _468
REMARK  182  A    between atoms: _468  and  _469
REMARK  183  A    between atoms: _468  and  _471
REMARK  184  A    between atoms: _471  and  _472
REMARK  185  A    between atoms: _474  and  _476
REMARK  186  A    between atoms: _476  and  _477
REMARK  187  A    between atoms: _476  and  _479
REMARK  188  A    between atoms: _479  and  _480
REMARK  189  A    between atoms: _483  and  _485
REMARK  190  A    between atoms: _485  and  _486
REMARK  191  A    between atoms: _485  and  _488
REMARK  192  A    between atoms: _488  and  _489
REMARK  193  A    between atoms: _493  and  _494
REMARK  194  A    between atoms: _499  and  _501
REMARK  195  A    between atoms: _501  and  _502
REMARK  196  A    between atoms: _505  and  _507
REMARK  197  A    between atoms: _507  and  _508
REMARK  198  A    between atoms: _507  and  _510
REMARK  199  A    between atoms: _510  and  _511
REMARK  200  A    between atoms: _514  and  _516
REMARK  201  A    between atoms: _516  and  _517
REMARK  202  A    between atoms: _516  and  _519
REMARK  203  A    between atoms: _519  and  _520
REMARK  204  A    between atoms: _530  and  _532
REMARK  205  A    between atoms: _532  and  _533
REMARK  206  A    between atoms: _532  and  _535
REMARK  207  A    between atoms: _535  and  _536
REMARK  208  A    between atoms: _536  and  _537
REMARK  209  A    between atoms: _539  and  _541
REMARK  210  A    between atoms: _541  and  _542
REMARK  211  A    between atoms: _541  and  _544
REMARK  212  A    between atoms: _544  and  _545
REMARK  213  A    between atoms: _548  and  _550
REMARK  214  A    between atoms: _550  and  _551
REMARK  215  A    between atoms: _550  and  _553
REMARK  216  A    between atoms: _553  and  _554
REMARK  217  A    between atoms: _557  and  _559
REMARK  218  A    between atoms: _559  and  _560
REMARK  219  A    between atoms: _563  and  _565
REMARK  220  A    between atoms: _565  and  _566
REMARK  221  A    between atoms: _568  and  _570
REMARK  222  A    between atoms: _570  and  _571
REMARK  223  A    between atoms: _570  and  _573
REMARK  224  A    between atoms: _573  and  _574
REMARK  225  A    between atoms: _579  and  _581
REMARK  226  A    between atoms: _581  and  _582
REMARK  227  A    between atoms: _581  and  _584
REMARK  228  A    between atoms: _584  and  _585
REMARK                            x       y       z     vdW  Elec       q    Type
REMARK                         _______ _______ _______ _____ _____    ______ ____
ROOT
ATOM      1  O   HOH     1     -16.537  18.246  -3.329  0.00  0.00    +0.000 OA
ENDROOT
TORSDOF 0
REMARK  Name = ../refined-set-2016/4c1u/4c1u_pocket.pdb
REMARK  228 active torsions:
REMARK  status: ('A' for Active; 'I' for Inactive)
REMARK    1  A    between atoms: _1  and  _3
REMARK    2  A    between atoms: _3  and  _4
REMARK    3  A    between atoms: _3  and  _6
REMARK    4  A    between atoms: _6  and  _7
REMARK    5  A    between atoms: _12  and  _14
REMARK    6  A    between atoms: _14  and  _15
REMARK    7  A    between atoms: _14  and  _17
REMARK    8  A    between atoms: _17  and  _18
REMARK    9  A    between atoms: _23  and  _25
REMARK   10  A    between atoms: _25  and  _26
REMARK   11  A    between atoms: _29  and  _31
REMARK   12  A    between atoms: _31  and  _32
REMARK   13  A    between atoms: _31  and  _34
REMARK   14  A    between atoms: _34  and  _35
REMARK   15  A    between atoms: _37  and  _39
REMARK   16  A    between atoms: _39  and  _40
REMARK   17  A    between atoms: _43  and  _45
REMARK   18  A    between atoms: _45  and  _46
REMARK   19  A    between atoms: _48  and  _50
REMARK   20  A    between atoms: _50  and  _51
REMARK   21  A    between atoms: _50  and  _53
REMARK   22  A    between atoms: _53  and  _54
REMARK   23  A    between atoms: _54  and  _55
REMARK   24  A    between atoms: _55  and  _56
REMARK   25  A    between atoms: _65  and  _67
REMARK   26  A    between atoms: _67  and  _68
REMARK   27  A    between atoms: _67  and  _70
REMARK   28  A    between atoms: _70  and  _71
REMARK   29  A    between atoms: _81  and  _83
REMARK   30  A    between atoms: _83  and  _84
REMARK   31  A    between atoms: _83  and  _86
REMARK   32  A    between atoms: _86  and  _87
REMARK   33  A    between atoms: _90  and  _92
REMARK   34  A    between atoms: _92  and  _93
REMARK   35  A    between atoms: _92  and  _95
REMARK   36  A    between atoms: _95  and  _96
REMARK   37  A    between atoms: _96  and  _97
REMARK   38  A    between atoms: _102  and  _104
REMARK   39  A    between atoms: _104  and  _105
REMARK   40  A    between atoms: _104  and  _107
REMARK   41  A    between atoms: _107  and  _108
REMARK   42  A    between atoms: _113  and  _115
REMARK   43  A    between atoms: _115  and  _116
REMARK   44  A    between atoms: _115  and  _118
REMARK   45  A    between atoms: _118  and  _119
REMARK   46  A    between atoms: _119  and  _120
REMARK   47  A    between atoms: _123  and  _125
REMARK   48  A    between atoms: _125  and  _126
REMARK   49  A    between atoms: _125  and  _128
REMARK   50  A    between atoms: _128  and  _129
REMARK   51  A    between atoms: _135  and  _137
REMARK   52  A    between atoms: _137  and  _138
REMARK   53  A    between atoms: _141  and  _143
REMARK   54  A    between atoms: _143  and  _144
REMARK   55  A    between atoms: _143  and  _146
REMARK   56  A    between atoms: _146  and  _147
REMARK   57  A    between atoms: _147  and  _148
REMARK   58  A    between atoms: _150  and  _152
REMARK   59  A    between atoms: _152  and  _153
REMARK   60  A    between atoms: _152  and  _155
REMARK   61  A    between atoms: _155  and  _156
REMARK   62  A    between atoms: _158  and  _160
REMARK   63  A    between atoms: _160  and  _161
REMARK   64  A    between atoms: _160  and  _163
REMARK   65  A    between atoms: _163  and  _164
REMARK   66  A    between atoms: _167  and  _169
REMARK   67  A    between atoms: _169  and  _170
REMARK   68  A    between atoms: _169  and  _172
REMARK   69  A    between atoms: _172  and  _173
REMARK   70  A    between atoms: _173  and  _174
REMARK   71  A    between atoms: _174  and  _175
REMARK   72  A    between atoms: _175  and  _176
REMARK   73  A    between atoms: _180  and  _182
REMARK   74  A    between atoms: _182  and  _183
REMARK   75  A    between atoms: _182  and  _185
REMARK   76  A    between atoms: _188  and  _190
REMARK   77  A    between atoms: _190  and  _191
REMARK   78  A    between atoms: _190  and  _193
REMARK   79  A    between atoms: _193  and  _194
REMARK   80  A    between atoms: _196  and  _198
REMARK   81  A    between atoms: _198  and  _199
REMARK   82  A    between atoms: _198  and  _201
REMARK   83  A    between atoms: _204  and  _206
REMARK   84  A    between atoms: _206  and  _207
REMARK   85  A    between atoms: _206  and  _209
REMARK   86  A    between atoms: _209  and  _210
REMARK   87  A    between atoms: _210  and  _211
REMARK   88  A    between atoms: _214  and  _216
REMARK   89  A    between atoms: _216  and  _217
REMARK   90  A    between atoms: _216  and  _219
REMARK   91  A    between atoms: _219  and  _220
REMARK   92  A    between atoms: _223  and  _225
REMARK   93  A    between atoms: _225  and  _226
REMARK   94  A    between atoms: _229  and  _231
REMARK   95  A    between atoms: _231  and  _232
REMARK   96  A    between atoms: _231  and  _234
REMARK   97  A    between atoms: _234  and  _235
REMARK   98  A    between atoms: _246  and  _247
REMARK   99  A    between atoms: _252  and  _254
REMARK  100  A    between atoms: _254  and  _255
REMARK  101  A    between atoms: _258  and  _260
REMARK  102  A    between atoms: _260  and  _261
REMARK  103  A    between atoms: _260  and  _263
REMARK  104  A    between atoms: _263  and  _264
REMARK  105  A    between atoms: _269  and  _271
REMARK  106  A    between atoms: _271  and  _272
REMARK  107  A    between atoms: _271  and  _274
REMARK  108  A    between atoms: _274  and  _275
REMARK  109  A    between atoms: _280  and  _281
REMARK  110  A    between atoms: _283  and  _285
REMARK  111  A    between atoms: _285  and  _286
REMARK  112  A    between atoms: _289  and  _291
REMARK  113  A    between atoms: _291  and  _292
REMARK  114  A    between atoms: _291  and  _294
REMARK  115  A    between atoms: _294  and  _295
REMARK  116  A    between atoms: _295  and  _296
REMARK  117  A    between atoms: _301  and  _303
REMARK  118  A    between atoms: _303  and  _304
REMARK  119  A    between atoms: _303  and  _306
REMARK  120  A    between atoms: _306  and  _307
REMARK  121  A    between atoms: _307  and  _308
REMARK  122  A    between atoms: _310  and  _312
REMARK  123  A    between atoms: _312  and  _313
REMARK  124  A    between atoms: _315  and  _317
REMARK  125  A    between atoms: _317  and  _318
REMARK  126  A    between atoms: _321  and  _323
REMARK  127  A    between atoms: _323  and  _324
REMARK  128  A    between atoms: _323  and  _326
REMARK  129  A    between atoms: _326  and  _327
REMARK  130  A    between atoms: _337  and  _339
REMARK  131  A    between atoms: _339  and  _340
REMARK  132  A    between atoms: _339  and  _342
REMARK  133  A    between atoms: _342  and  _343
REMARK  134  A    between atoms: _343  and  _344
REMARK  135  A    between atoms: _347  and  _349
REMARK  136  A    between atoms: _349  and  _350
REMARK  137  A    between atoms: _352  and  _354
REMARK  138  A    between atoms: _354  and  _355
REMARK  139  A    between atoms: _354  and  _357
REMARK  140  A    between atoms: _360  and  _362
REMARK  141  A    between atoms: _362  and  _363
REMARK  142  A    between atoms: _362  and  _365
REMARK  143  A    between atoms: _365  and  _366
REMARK  144  A    between atoms: _366  and  _367
REMARK  145  A    between atoms: _369  and  _371
REMARK  146  A    between atoms: _371  and  _372
REMARK  147  A    between atoms: _374  and  _376
REMARK  148  A    between atoms: _376  and  _377
REMARK  149  A    between atoms: _379  and  _381
REMARK  150  A    between atoms: _381  and  _382
REMARK  151  A    between atoms: _381  and  _384
REMARK  152  A    between atoms: _387  and  _389
REMARK  153  A    between atoms: _389  and  _390
REMARK  154  A    between atoms: _389  and  _392
REMARK  155  A    between atoms: _392  and  _393
REMARK  156  A    between atoms: _396  and  _398
REMARK  157  A    between atoms: _398  and  _399
REMARK  158  A    between atoms: _398  and  _401
REMARK  159  A    between atoms: _401  and  _402
REMARK  160  A    between atoms: _407  and  _408
REMARK  161  A    between atoms: _410  and  _412
REMARK  162  A    between atoms: _412  and  _413
REMARK  163  A    between atoms: _412  and  _415
REMARK  164  A    between atoms: _415  and  _416
REMARK  165  A    between atoms: _422  and  _424
REMARK  166  A    between atoms: _424  and  _425
REMARK  167  A    between atoms: _424  and  _427
REMARK  168  A    between atoms: _427  and  _428
REMARK  169  A    between atoms: _428  and  _429
REMARK  170  A    between atoms: _434  and  _436
REMARK  171  A    between atoms: _436  and  _437
REMARK  172  A    between atoms: _436  and  _439
REMARK  173  A    between atoms: _439  and  _440
REMARK  174  A    between atoms: _445  and  _446
REMARK  175  A    between atoms: _448  and  _450
REMARK  176  A    between atoms: _450  and  _451
REMARK  177  A    between atoms: _454  and  _456
REMARK  178  A    between atoms: _456  and  _457
REMARK  179  A    between atoms: _456  and  _459
REMARK  180  A    between atoms: _459  and  _460
REMARK  181  A    between atoms: _466  and  _468
REMARK  182  A    between atoms: _468  and  _469
REMARK  183  A    between atoms: _468  and  _471
REMARK  184  A    between atoms: _471  and  _472
REMARK  185  A    between atoms: _474  and  _476
REMARK  186  A    between atoms: _476  and  _477
REMARK  187  A    between atoms: _476  and  _479
REMARK  188  A    between atoms: _479  and  _480
REMARK  189  A    between atoms: _483  and  _485
REMARK  190  A    between atoms: _485  and  _486
REMARK  191  A    between atoms: _485  and  _488
REMARK  192  A    between atoms: _488  and  _489
REMARK  193  A    between atoms: _493  and  _494
REMARK  194  A    between atoms: _499  and  _501
REMARK  195  A    between atoms: _501  and  _502
REMARK  196  A    between atoms: _505  and  _507
REMARK  197  A    between atoms: _507  and  _508
REMARK  198  A    between atoms: _507  and  _510
REMARK  199  A    between atoms: _510  and  _511
REMARK  200  A    between atoms: _514  and  _516
REMARK  201  A    between atoms: _516  and  _517
REMARK  202  A    between atoms: _516  and  _519
REMARK  203  A    between atoms: _519  and  _520
REMARK  204  A    between atoms: _530  and  _532
REMARK  205  A    between atoms: _532  and  _533
REMARK  206  A    between atoms: _532  and  _535
REMARK  207  A    between atoms: _535  and  _536
REMARK  208  A    between atoms: _536  and  _537
REMARK  209  A    between atoms: _539  and  _541
REMARK  210  A    between atoms: _541  and  _542
REMARK  211  A    between atoms: _541  and  _544
REMARK  212  A    between atoms: _544  and  _545
REMARK  213  A    between atoms: _548  and  _550
REMARK  214  A    between atoms: _550  and  _551
REMARK  215  A    between atoms: _550  and  _553
REMARK  216  A    between atoms: _553  and  _554
REMARK  217  A    between atoms: _557  and  _559
REMARK  218  A    between atoms: _559  and  _560
REMARK  219  A    between atoms: _563  and  _565
REMARK  220  A    between atoms: _565  and  _566
REMARK  221  A    between atoms: _568  and  _570
REMARK  222  A    between atoms: _570  and  _571
REMARK  223  A    between atoms: _570  and  _573
REMARK  224  A    between atoms: _573  and  _574
REMARK  225  A    between atoms: _579  and  _581
REMARK  226  A    between atoms: _581  and  _582
REMARK  227  A    between atoms: _581  and  _584
REMARK  228  A    between atoms: _584  and  _585
REMARK                            x       y       z     vdW  Elec       q    Type
REMARK                         _______ _______ _______ _____ _____    ______ ____
ROOT
ATOM      1  O   HOH     1     -15.879  19.426  -7.564  0.00  0.00    +0.000 OA
ENDROOT
TORSDOF 0
REMARK  Name = ../refined-set-2016/4c1u/4c1u_pocket.pdb
REMARK  228 active torsions:
REMARK  status: ('A' for Active; 'I' for Inactive)
REMARK    1  A    between atoms: _1  and  _3
REMARK    2  A    between atoms: _3  and  _4
REMARK    3  A    between atoms: _3  and  _6
REMARK    4  A    between atoms: _6  and  _7
REMARK    5  A    between atoms: _12  and  _14
REMARK    6  A    between atoms: _14  and  _15
REMARK    7  A    between atoms: _14  and  _17
REMARK    8  A    between atoms: _17  and  _18
REMARK    9  A    between atoms: _23  and  _25
REMARK   10  A    between atoms: _25  and  _26
REMARK   11  A    between atoms: _29  and  _31
REMARK   12  A    between atoms: _31  and  _32
REMARK   13  A    between atoms: _31  and  _34
REMARK   14  A    between atoms: _34  and  _35
REMARK   15  A    between atoms: _37  and  _39
REMARK   16  A    between atoms: _39  and  _40
REMARK   17  A    between atoms: _43  and  _45
REMARK   18  A    between atoms: _45  and  _46
REMARK   19  A    between atoms: _48  and  _50
REMARK   20  A    between atoms: _50  and  _51
REMARK   21  A    between atoms: _50  and  _53
REMARK   22  A    between atoms: _53  and  _54
REMARK   23  A    between atoms: _54  and  _55
REMARK   24  A    between atoms: _55  and  _56
REMARK   25  A    between atoms: _65  and  _67
REMARK   26  A    between atoms: _67  and  _68
REMARK   27  A    between atoms: _67  and  _70
REMARK   28  A    between atoms: _70  and  _71
REMARK   29  A    between atoms: _81  and  _83
REMARK   30  A    between atoms: _83  and  _84
REMARK   31  A    between atoms: _83  and  _86
REMARK   32  A    between atoms: _86  and  _87
REMARK   33  A    between atoms: _90  and  _92
REMARK   34  A    between atoms: _92  and  _93
REMARK   35  A    between atoms: _92  and  _95
REMARK   36  A    between atoms: _95  and  _96
REMARK   37  A    between atoms: _96  and  _97
REMARK   38  A    between atoms: _102  and  _104
REMARK   39  A    between atoms: _104  and  _105
REMARK   40  A    between atoms: _104  and  _107
REMARK   41  A    between atoms: _107  and  _108
REMARK   42  A    between atoms: _113  and  _115
REMARK   43  A    between atoms: _115  and  _116
REMARK   44  A    between atoms: _115  and  _118
REMARK   45  A    between atoms: _118  and  _119
REMARK   46  A    between atoms: _119  and  _120
REMARK   47  A    between atoms: _123  and  _125
REMARK   48  A    between atoms: _125  and  _126
REMARK   49  A    between atoms: _125  and  _128
REMARK   50  A    between atoms: _128  and  _129
REMARK   51  A    between atoms: _135  and  _137
REMARK   52  A    between atoms: _137  and  _138
REMARK   53  A    between atoms: _141  and  _143
REMARK   54  A    between atoms: _143  and  _144
REMARK   55  A    between atoms: _143  and  _146
REMARK   56  A    between atoms: _146  and  _147
REMARK   57  A    between atoms: _147  and  _148
REMARK   58  A    between atoms: _150  and  _152
REMARK   59  A    between atoms: _152  and  _153
REMARK   60  A    between atoms: _152  and  _155
REMARK   61  A    between atoms: _155  and  _156
REMARK   62  A    between atoms: _158  and  _160
REMARK   63  A    between atoms: _160  and  _161
REMARK   64  A    between atoms: _160  and  _163
REMARK   65  A    between atoms: _163  and  _164
REMARK   66  A    between atoms: _167  and  _169
REMARK   67  A    between atoms: _169  and  _170
REMARK   68  A    between atoms: _169  and  _172
REMARK   69  A    between atoms: _172  and  _173
REMARK   70  A    between atoms: _173  and  _174
REMARK   71  A    between atoms: _174  and  _175
REMARK   72  A    between atoms: _175  and  _176
REMARK   73  A    between atoms: _180  and  _182
REMARK   74  A    between atoms: _182  and  _183
REMARK   75  A    between atoms: _182  and  _185
REMARK   76  A    between atoms: _188  and  _190
REMARK   77  A    between atoms: _190  and  _191
REMARK   78  A    between atoms: _190  and  _193
REMARK   79  A    between atoms: _193  and  _194
REMARK   80  A    between atoms: _196  and  _198
REMARK   81  A    between atoms: _198  and  _199
REMARK   82  A    between atoms: _198  and  _201
REMARK   83  A    between atoms: _204  and  _206
REMARK   84  A    between atoms: _206  and  _207
REMARK   85  A    between atoms: _206  and  _209
REMARK   86  A    between atoms: _209  and  _210
REMARK   87  A    between atoms: _210  and  _211
REMARK   88  A    between atoms: _214  and  _216
REMARK   89  A    between atoms: _216  and  _217
REMARK   90  A    between atoms: _216  and  _219
REMARK   91  A    between atoms: _219  and  _220
REMARK   92  A    between atoms: _223  and  _225
REMARK   93  A    between atoms: _225  and  _226
REMARK   94  A    between atoms: _229  and  _231
REMARK   95  A    between atoms: _231  and  _232
REMARK   96  A    between atoms: _231  and  _234
REMARK   97  A    between atoms: _234  and  _235
REMARK   98  A    between atoms: _246  and  _247
REMARK   99  A    between atoms: _252  and  _254
REMARK  100  A    between atoms: _254  and  _255
REMARK  101  A    between atoms: _258  and  _260
REMARK  102  A    between atoms: _260  and  _261
REMARK  103  A    between atoms: _260  and  _263
REMARK  104  A    between atoms: _263  and  _264
REMARK  105  A    between atoms: _269  and  _271
REMARK  106  A    between atoms: _271  and  _272
REMARK  107  A    between atoms: _271  and  _274
REMARK  108  A    between atoms: _274  and  _275
REMARK  109  A    between atoms: _280  and  _281
REMARK  110  A    between atoms: _283  and  _285
REMARK  111  A    between atoms: _285  and  _286
REMARK  112  A    between atoms: _289  and  _291
REMARK  113  A    between atoms: _291  and  _292
REMARK  114  A    between atoms: _291  and  _294
REMARK  115  A    between atoms: _294  and  _295
REMARK  116  A    between atoms: _295  and  _296
REMARK  117  A    between atoms: _301  and  _303
REMARK  118  A    between atoms: _303  and  _304
REMARK  119  A    between atoms: _303  and  _306
REMARK  120  A    between atoms: _306  and  _307
REMARK  121  A    between atoms: _307  and  _308
REMARK  122  A    between atoms: _310  and  _312
REMARK  123  A    between atoms: _312  and  _313
REMARK  124  A    between atoms: _315  and  _317
REMARK  125  A    between atoms: _317  and  _318
REMARK  126  A    between atoms: _321  and  _323
REMARK  127  A    between atoms: _323  and  _324
REMARK  128  A    between atoms: _323  and  _326
REMARK  129  A    between atoms: _326  and  _327
REMARK  130  A    between atoms: _337  and  _339
REMARK  131  A    between atoms: _339  and  _340
REMARK  132  A    between atoms: _339  and  _342
REMARK  133  A    between atoms: _342  and  _343
REMARK  134  A    between atoms: _343  and  _344
REMARK  135  A    between atoms: _347  and  _349
REMARK  136  A    between atoms: _349  and  _350
REMARK  137  A    between atoms: _352  and  _354
REMARK  138  A    between atoms: _354  and  _355
REMARK  139  A    between atoms: _354  and  _357
REMARK  140  A    between atoms: _360  and  _362
REMARK  141  A    between atoms: _362  and  _363
REMARK  142  A    between atoms: _362  and  _365
REMARK  143  A    between atoms: _365  and  _366
REMARK  144  A    between atoms: _366  and  _367
REMARK  145  A    between atoms: _369  and  _371
REMARK  146  A    between atoms: _371  and  _372
REMARK  147  A    between atoms: _374  and  _376
REMARK  148  A    between atoms: _376  and  _377
REMARK  149  A    between atoms: _379  and  _381
REMARK  150  A    between atoms: _381  and  _382
REMARK  151  A    between atoms: _381  and  _384
REMARK  152  A    between atoms: _387  and  _389
REMARK  153  A    between atoms: _389  and  _390
REMARK  154  A    between atoms: _389  and  _392
REMARK  155  A    between atoms: _392  and  _393
REMARK  156  A    between atoms: _396  and  _398
REMARK  157  A    between atoms: _398  and  _399
REMARK  158  A    between atoms: _398  and  _401
REMARK  159  A    between atoms: _401  and  _402
REMARK  160  A    between atoms: _407  and  _408
REMARK  161  A    between atoms: _410  and  _412
REMARK  162  A    between atoms: _412  and  _413
REMARK  163  A    between atoms: _412  and  _415
REMARK  164  A    between atoms: _415  and  _416
REMARK  165  A    between atoms: _422  and  _424
REMARK  166  A    between atoms: _424  and  _425
REMARK  167  A    between atoms: _424  and  _427
REMARK  168  A    between atoms: _427  and  _428
REMARK  169  A    between atoms: _428  and  _429
REMARK  170  A    between atoms: _434  and  _436
REMARK  171  A    between atoms: _436  and  _437
REMARK  172  A    between atoms: _436  and  _439
REMARK  173  A    between atoms: _439  and  _440
REMARK  174  A    between atoms: _445  and  _446
REMARK  175  A    between atoms: _448  and  _450
REMARK  176  A    between atoms: _450  and  _451
REMARK  177  A    between atoms: _454  and  _456
REMARK  178  A    between atoms: _456  and  _457
REMARK  179  A    between atoms: _456  and  _459
REMARK  180  A    between atoms: _459  and  _460
REMARK  181  A    between atoms: _466  and  _468
REMARK  182  A    between atoms: _468  and  _469
REMARK  183  A    between atoms: _468  and  _471
REMARK  184  A    between atoms: _471  and  _472
REMARK  185  A    between atoms: _474  and  _476
REMARK  186  A    between atoms: _476  and  _477
REMARK  187  A    between atoms: _476  and  _479
REMARK  188  A    between atoms: _479  and  _480
REMARK  189  A    between atoms: _483  and  _485
REMARK  190  A    between atoms: _485  and  _486
REMARK  191  A    between atoms: _485  and  _488
REMARK  192  A    between atoms: _488  and  _489
REMARK  193  A    between atoms: _493  and  _494
REMARK  194  A    between atoms: _499  and  _501
REMARK  195  A    between atoms: _501  and  _502
REMARK  196  A    between atoms: _505  and  _507
REMARK  197  A    between atoms: _507  and  _508
REMARK  198  A    between atoms: _507  and  _510
REMARK  199  A    between atoms: _510  and  _511
REMARK  200  A    between atoms: _514  and  _516
REMARK  201  A    between atoms: _516  and  _517
REMARK  202  A    between atoms: _516  and  _519
REMARK  203  A    between atoms: _519  and  _520
REMARK  204  A    between atoms: _530  and  _532
REMARK  205  A    between atoms: _532  and  _533
REMARK  206  A    between atoms: _532  and  _535
REMARK  207  A    between atoms: _535  and  _536
REMARK  208  A    between atoms: _536  and  _537
REMARK  209  A    between atoms: _539  and  _541
REMARK  210  A    between atoms: _541  and  _542
REMARK  211  A    between atoms: _541  and  _544
REMARK  212  A    between atoms: _544  and  _545
REMARK  213  A    between atoms: _548  and  _550
REMARK  214  A    between atoms: _550  and  _551
REMARK  215  A    between atoms: _550  and  _553
REMARK  216  A    between atoms: _553  and  _554
REMARK  217  A    between atoms: _557  and  _559
REMARK  218  A    between atoms: _559  and  _560
REMARK  219  A    between atoms: _563  and  _565
REMARK  220  A    between atoms: _565  and  _566
REMARK  221  A    between atoms: _568  and  _570
REMARK  222  A    between atoms: _570  and  _571
REMARK  223  A    between atoms: _570  and  _573
REMARK  224  A    between atoms: _573  and  _574
REMARK  225  A    between atoms: _579  and  _581
REMARK  226  A    between atoms: _581  and  _582
REMARK  227  A    between atoms: _581  and  _584
REMARK  228  A    between atoms: _584  and  _585
REMARK                            x       y       z     vdW  Elec       q    Type
REMARK                         _______ _______ _______ _____ _____    ______ ____
ROOT
ATOM      1  O   HOH     1     -17.464  20.976  -4.271  0.00  0.00    +0.000 OA
ENDROOT
TORSDOF 0
REMARK  Name = ../refined-set-2016/4c1u/4c1u_pocket.pdb
REMARK  228 active torsions:
REMARK  status: ('A' for Active; 'I' for Inactive)
REMARK    1  A    between atoms: _1  and  _3
REMARK    2  A    between atoms: _3  and  _4
REMARK    3  A    between atoms: _3  and  _6
REMARK    4  A    between atoms: _6  and  _7
REMARK    5  A    between atoms: _12  and  _14
REMARK    6  A    between atoms: _14  and  _15
REMARK    7  A    between atoms: _14  and  _17
REMARK    8  A    between atoms: _17  and  _18
REMARK    9  A    between atoms: _23  and  _25
REMARK   10  A    between atoms: _25  and  _26
REMARK   11  A    between atoms: _29  and  _31
REMARK   12  A    between atoms: _31  and  _32
REMARK   13  A    between atoms: _31  and  _34
REMARK   14  A    between atoms: _34  and  _35
REMARK   15  A    between atoms: _37  and  _39
REMARK   16  A    between atoms: _39  and  _40
REMARK   17  A    between atoms: _43  and  _45
REMARK   18  A    between atoms: _45  and  _46
REMARK   19  A    between atoms: _48  and  _50
REMARK   20  A    between atoms: _50  and  _51
REMARK   21  A    between atoms: _50  and  _53
REMARK   22  A    between atoms: _53  and  _54
REMARK   23  A    between atoms: _54  and  _55
REMARK   24  A    between atoms: _55  and  _56
REMARK   25  A    between atoms: _65  and  _67
REMARK   26  A    between atoms: _67  and  _68
REMARK   27  A    between atoms: _67  and  _70
REMARK   28  A    between atoms: _70  and  _71
REMARK   29  A    between atoms: _81  and  _83
REMARK   30  A    between atoms: _83  and  _84
REMARK   31  A    between atoms: _83  and  _86
REMARK   32  A    between atoms: _86  and  _87
REMARK   33  A    between atoms: _90  and  _92
REMARK   34  A    between atoms: _92  and  _93
REMARK   35  A    between atoms: _92  and  _95
REMARK   36  A    between atoms: _95  and  _96
REMARK   37  A    between atoms: _96  and  _97
REMARK   38  A    between atoms: _102  and  _104
REMARK   39  A    between atoms: _104  and  _105
REMARK   40  A    between atoms: _104  and  _107
REMARK   41  A    between atoms: _107  and  _108
REMARK   42  A    between atoms: _113  and  _115
REMARK   43  A    between atoms: _115  and  _116
REMARK   44  A    between atoms: _115  and  _118
REMARK   45  A    between atoms: _118  and  _119
REMARK   46  A    between atoms: _119  and  _120
REMARK   47  A    between atoms: _123  and  _125
REMARK   48  A    between atoms: _125  and  _126
REMARK   49  A    between atoms: _125  and  _128
REMARK   50  A    between atoms: _128  and  _129
REMARK   51  A    between atoms: _135  and  _137
REMARK   52  A    between atoms: _137  and  _138
REMARK   53  A    between atoms: _141  and  _143
REMARK   54  A    between atoms: _143  and  _144
REMARK   55  A    between atoms: _143  and  _146
REMARK   56  A    between atoms: _146  and  _147
REMARK   57  A    between atoms: _147  and  _148
REMARK   58  A    between atoms: _150  and  _152
REMARK   59  A    between atoms: _152  and  _153
REMARK   60  A    between atoms: _152  and  _155
REMARK   61  A    between atoms: _155  and  _156
REMARK   62  A    between atoms: _158  and  _160
REMARK   63  A    between atoms: _160  and  _161
REMARK   64  A    between atoms: _160  and  _163
REMARK   65  A    between atoms: _163  and  _164
REMARK   66  A    between atoms: _167  and  _169
REMARK   67  A    between atoms: _169  and  _170
REMARK   68  A    between atoms: _169  and  _172
REMARK   69  A    between atoms: _172  and  _173
REMARK   70  A    between atoms: _173  and  _174
REMARK   71  A    between atoms: _174  and  _175
REMARK   72  A    between atoms: _175  and  _176
REMARK   73  A    between atoms: _180  and  _182
REMARK   74  A    between atoms: _182  and  _183
REMARK   75  A    between atoms: _182  and  _185
REMARK   76  A    between atoms: _188  and  _190
REMARK   77  A    between atoms: _190  and  _191
REMARK   78  A    between atoms: _190  and  _193
REMARK   79  A    between atoms: _193  and  _194
REMARK   80  A    between atoms: _196  and  _198
REMARK   81  A    between atoms: _198  and  _199
REMARK   82  A    between atoms: _198  and  _201
REMARK   83  A    between atoms: _204  and  _206
REMARK   84  A    between atoms: _206  and  _207
REMARK   85  A    between atoms: _206  and  _209
REMARK   86  A    between atoms: _209  and  _210
REMARK   87  A    between atoms: _210  and  _211
REMARK   88  A    between atoms: _214  and  _216
REMARK   89  A    between atoms: _216  and  _217
REMARK   90  A    between atoms: _216  and  _219
REMARK   91  A    between atoms: _219  and  _220
REMARK   92  A    between atoms: _223  and  _225
REMARK   93  A    between atoms: _225  and  _226
REMARK   94  A    between atoms: _229  and  _231
REMARK   95  A    between atoms: _231  and  _232
REMARK   96  A    between atoms: _231  and  _234
REMARK   97  A    between atoms: _234  and  _235
REMARK   98  A    between atoms: _246  and  _247
REMARK   99  A    between atoms: _252  and  _254
REMARK  100  A    between atoms: _254  and  _255
REMARK  101  A    between atoms: _258  and  _260
REMARK  102  A    between atoms: _260  and  _261
REMARK  103  A    between atoms: _260  and  _263
REMARK  104  A    between atoms: _263  and  _264
REMARK  105  A    between atoms: _269  and  _271
REMARK  106  A    between atoms: _271  and  _272
REMARK  107  A    between atoms: _271  and  _274
REMARK  108  A    between atoms: _274  and  _275
REMARK  109  A    between atoms: _280  and  _281
REMARK  110  A    between atoms: _283  and  _285
REMARK  111  A    between atoms: _285  and  _286
REMARK  112  A    between atoms: _289  and  _291
REMARK  113  A    between atoms: _291  and  _292
REMARK  114  A    between atoms: _291  and  _294
REMARK  115  A    between atoms: _294  and  _295
REMARK  116  A    between atoms: _295  and  _296
REMARK  117  A    between atoms: _301  and  _303
REMARK  118  A    between atoms: _303  and  _304
REMARK  119  A    between atoms: _303  and  _306
REMARK  120  A    between atoms: _306  and  _307
REMARK  121  A    between atoms: _307  and  _308
REMARK  122  A    between atoms: _310  and  _312
REMARK  123  A    between atoms: _312  and  _313
REMARK  124  A    between atoms: _315  and  _317
REMARK  125  A    between atoms: _317  and  _318
REMARK  126  A    between atoms: _321  and  _323
REMARK  127  A    between atoms: _323  and  _324
REMARK  128  A    between atoms: _323  and  _326
REMARK  129  A    between atoms: _326  and  _327
REMARK  130  A    between atoms: _337  and  _339
REMARK  131  A    between atoms: _339  and  _340
REMARK  132  A    between atoms: _339  and  _342
REMARK  133  A    between atoms: _342  and  _343
REMARK  134  A    between atoms: _343  and  _344
REMARK  135  A    between atoms: _347  and  _349
REMARK  136  A    between atoms: _349  and  _350
REMARK  137  A    between atoms: _352  and  _354
REMARK  138  A    between atoms: _354  and  _355
REMARK  139  A    between atoms: _354  and  _357
REMARK  140  A    between atoms: _360  and  _362
REMARK  141  A    between atoms: _362  and  _363
REMARK  142  A    between atoms: _362  and  _365
REMARK  143  A    between atoms: _365  and  _366
REMARK  144  A    between atoms: _366  and  _367
REMARK  145  A    between atoms: _369  and  _371
REMARK  146  A    between atoms: _371  and  _372
REMARK  147  A    between atoms: _374  and  _376
REMARK  148  A    between atoms: _376  and  _377
REMARK  149  A    between atoms: _379  and  _381
REMARK  150  A    between atoms: _381  and  _382
REMARK  151  A    between atoms: _381  and  _384
REMARK  152  A    between atoms: _387  and  _389
REMARK  153  A    between atoms: _389  and  _390
REMARK  154  A    between atoms: _389  and  _392
REMARK  155  A    between atoms: _392  and  _393
REMARK  156  A    between atoms: _396  and  _398
REMARK  157  A    between atoms: _398  and  _399
REMARK  158  A    between atoms: _398  and  _401
REMARK  159  A    between atoms: _401  and  _402
REMARK  160  A    between atoms: _407  and  _408
REMARK  161  A    between atoms: _410  and  _412
REMARK  162  A    between atoms: _412  and  _413
REMARK  163  A    between atoms: _412  and  _415
REMARK  164  A    between atoms: _415  and  _416
REMARK  165  A    between atoms: _422  and  _424
REMARK  166  A    between atoms: _424  and  _425
REMARK  167  A    between atoms: _424  and  _427
REMARK  168  A    between atoms: _427  and  _428
REMARK  169  A    between atoms: _428  and  _429
REMARK  170  A    between atoms: _434  and  _436
REMARK  171  A    between atoms: _436  and  _437
REMARK  172  A    between atoms: _436  and  _439
REMARK  173  A    between atoms: _439  and  _440
REMARK  174  A    between atoms: _445  and  _446
REMARK  175  A    between atoms: _448  and  _450
REMARK  176  A    between atoms: _450  and  _451
REMARK  177  A    between atoms: _454  and  _456
REMARK  178  A    between atoms: _456  and  _457
REMARK  179  A    between atoms: _456  and  _459
REMARK  180  A    between atoms: _459  and  _460
REMARK  181  A    between atoms: _466  and  _468
REMARK  182  A    between atoms: _468  and  _469
REMARK  183  A    between atoms: _468  and  _471
REMARK  184  A    between atoms: _471  and  _472
REMARK  185  A    between atoms: _474  and  _476
REMARK  186  A    between atoms: _476  and  _477
REMARK  187  A    between atoms: _476  and  _479
REMARK  188  A    between atoms: _479  and  _480
REMARK  189  A    between atoms: _483  and  _485
REMARK  190  A    between atoms: _485  and  _486
REMARK  191  A    between atoms: _485  and  _488
REMARK  192  A    between atoms: _488  and  _489
REMARK  193  A    between atoms: _493  and  _494
REMARK  194  A    between atoms: _499  and  _501
REMARK  195  A    between atoms: _501  and  _502
REMARK  196  A    between atoms: _505  and  _507
REMARK  197  A    between atoms: _507  and  _508
REMARK  198  A    between atoms: _507  and  _510
REMARK  199  A    between atoms: _510  and  _511
REMARK  200  A    between atoms: _514  and  _516
REMARK  201  A    between atoms: _516  and  _517
REMARK  202  A    between atoms: _516  and  _519
REMARK  203  A    between atoms: _519  and  _520
REMARK  204  A    between atoms: _530  and  _532
REMARK  205  A    between atoms: _532  and  _533
REMARK  206  A    between atoms: _532  and  _535
REMARK  207  A    between atoms: _535  and  _536
REMARK  208  A    between atoms: _536  and  _537
REMARK  209  A    between atoms: _539  and  _541
REMARK  210  A    between atoms: _541  and  _542
REMARK  211  A    between atoms: _541  and  _544
REMARK  212  A    between atoms: _544  and  _545
REMARK  213  A    between atoms: _548  and  _550
REMARK  214  A    between atoms: _550  and  _551
REMARK  215  A    between atoms: _550  and  _553
REMARK  216  A    between atoms: _553  and  _554
REMARK  217  A    between atoms: _557  and  _559
REMARK  218  A    between atoms: _559  and  _560
REMARK  219  A    between atoms: _563  and  _565
REMARK  220  A    between atoms: _565  and  _566
REMARK  221  A    between atoms: _568  and  _570
REMARK  222  A    between atoms: _570  and  _571
REMARK  223  A    between atoms: _570  and  _573
REMARK  224  A    between atoms: _573  and  _574
REMARK  225  A    between atoms: _579  and  _581
REMARK  226  A    between atoms: _581  and  _582
REMARK  227  A    between atoms: _581  and  _584
REMARK  228  A    between atoms: _584  and  _585
REMARK                            x       y       z     vdW  Elec       q    Type
REMARK                         _______ _______ _______ _____ _____    ______ ____
ROOT
ATOM      1  O   HOH     1     -15.287  17.182 -16.360  0.00  0.00    +0.000 OA
ENDROOT
TORSDOF 0
REMARK  Name = ../refined-set-2016/4c1u/4c1u_pocket.pdb
REMARK  228 active torsions:
REMARK  status: ('A' for Active; 'I' for Inactive)
REMARK    1  A    between atoms: _1  and  _3
REMARK    2  A    between atoms: _3  and  _4
REMARK    3  A    between atoms: _3  and  _6
REMARK    4  A    between atoms: _6  and  _7
REMARK    5  A    between atoms: _12  and  _14
REMARK    6  A    between atoms: _14  and  _15
REMARK    7  A    between atoms: _14  and  _17
REMARK    8  A    between atoms: _17  and  _18
REMARK    9  A    between atoms: _23  and  _25
REMARK   10  A    between atoms: _25  and  _26
REMARK   11  A    between atoms: _29  and  _31
REMARK   12  A    between atoms: _31  and  _32
REMARK   13  A    between atoms: _31  and  _34
REMARK   14  A    between atoms: _34  and  _35
REMARK   15  A    between atoms: _37  and  _39
REMARK   16  A    between atoms: _39  and  _40
REMARK   17  A    between atoms: _43  and  _45
REMARK   18  A    between atoms: _45  and  _46
REMARK   19  A    between atoms: _48  and  _50
REMARK   20  A    between atoms: _50  and  _51
REMARK   21  A    between atoms: _50  and  _53
REMARK   22  A    between atoms: _53  and  _54
REMARK   23  A    between atoms: _54  and  _55
REMARK   24  A    between atoms: _55  and  _56
REMARK   25  A    between atoms: _65  and  _67
REMARK   26  A    between atoms: _67  and  _68
REMARK   27  A    between atoms: _67  and  _70
REMARK   28  A    between atoms: _70  and  _71
REMARK   29  A    between atoms: _81  and  _83
REMARK   30  A    between atoms: _83  and  _84
REMARK   31  A    between atoms: _83  and  _86
REMARK   32  A    between atoms: _86  and  _87
REMARK   33  A    between atoms: _90  and  _92
REMARK   34  A    between atoms: _92  and  _93
REMARK   35  A    between atoms: _92  and  _95
REMARK   36  A    between atoms: _95  and  _96
REMARK   37  A    between atoms: _96  and  _97
REMARK   38  A    between atoms: _102  and  _104
REMARK   39  A    between atoms: _104  and  _105
REMARK   40  A    between atoms: _104  and  _107
REMARK   41  A    between atoms: _107  and  _108
REMARK   42  A    between atoms: _113  and  _115
REMARK   43  A    between atoms: _115  and  _116
REMARK   44  A    between atoms: _115  and  _118
REMARK   45  A    between atoms: _118  and  _119
REMARK   46  A    between atoms: _119  and  _120
REMARK   47  A    between atoms: _123  and  _125
REMARK   48  A    between atoms: _125  and  _126
REMARK   49  A    between atoms: _125  and  _128
REMARK   50  A    between atoms: _128  and  _129
REMARK   51  A    between atoms: _135  and  _137
REMARK   52  A    between atoms: _137  and  _138
REMARK   53  A    between atoms: _141  and  _143
REMARK   54  A    between atoms: _143  and  _144
REMARK   55  A    between atoms: _143  and  _146
REMARK   56  A    between atoms: _146  and  _147
REMARK   57  A    between atoms: _147  and  _148
REMARK   58  A    between atoms: _150  and  _152
REMARK   59  A    between atoms: _152  and  _153
REMARK   60  A    between atoms: _152  and  _155
REMARK   61  A    between atoms: _155  and  _156
REMARK   62  A    between atoms: _158  and  _160
REMARK   63  A    between atoms: _160  and  _161
REMARK   64  A    between atoms: _160  and  _163
REMARK   65  A    between atoms: _163  and  _164
REMARK   66  A    between atoms: _167  and  _169
REMARK   67  A    between atoms: _169  and  _170
REMARK   68  A    between atoms: _169  and  _172
REMARK   69  A    between atoms: _172  and  _173
REMARK   70  A    between atoms: _173  and  _174
REMARK   71  A    between atoms: _174  and  _175
REMARK   72  A    between atoms: _175  and  _176
REMARK   73  A    between atoms: _180  and  _182
REMARK   74  A    between atoms: _182  and  _183
REMARK   75  A    between atoms: _182  and  _185
REMARK   76  A    between atoms: _188  and  _190
REMARK   77  A    between atoms: _190  and  _191
REMARK   78  A    between atoms: _190  and  _193
REMARK   79  A    between atoms: _193  and  _194
REMARK   80  A    between atoms: _196  and  _198
REMARK   81  A    between atoms: _198  and  _199
REMARK   82  A    between atoms: _198  and  _201
REMARK   83  A    between atoms: _204  and  _206
REMARK   84  A    between atoms: _206  and  _207
REMARK   85  A    between atoms: _206  and  _209
REMARK   86  A    between atoms: _209  and  _210
REMARK   87  A    between atoms: _210  and  _211
REMARK   88  A    between atoms: _214  and  _216
REMARK   89  A    between atoms: _216  and  _217
REMARK   90  A    between atoms: _216  and  _219
REMARK   91  A    between atoms: _219  and  _220
REMARK   92  A    between atoms: _223  and  _225
REMARK   93  A    between atoms: _225  and  _226
REMARK   94  A    between atoms: _229  and  _231
REMARK   95  A    between atoms: _231  and  _232
REMARK   96  A    between atoms: _231  and  _234
REMARK   97  A    between atoms: _234  and  _235
REMARK   98  A    between atoms: _246  and  _247
REMARK   99  A    between atoms: _252  and  _254
REMARK  100  A    between atoms: _254  and  _255
REMARK  101  A    between atoms: _258  and  _260
REMARK  102  A    between atoms: _260  and  _261
REMARK  103  A    between atoms: _260  and  _263
REMARK  104  A    between atoms: _263  and  _264
REMARK  105  A    between atoms: _269  and  _271
REMARK  106  A    between atoms: _271  and  _272
REMARK  107  A    between atoms: _271  and  _274
REMARK  108  A    between atoms: _274  and  _275
REMARK  109  A    between atoms: _280  and  _281
REMARK  110  A    between atoms: _283  and  _285
REMARK  111  A    between atoms: _285  and  _286
REMARK  112  A    between atoms: _289  and  _291
REMARK  113  A    between atoms: _291  and  _292
REMARK  114  A    between atoms: _291  and  _294
REMARK  115  A    between atoms: _294  and  _295
REMARK  116  A    between atoms: _295  and  _296
REMARK  117  A    between atoms: _301  and  _303
REMARK  118  A    between atoms: _303  and  _304
REMARK  119  A    between atoms: _303  and  _306
REMARK  120  A    between atoms: _306  and  _307
REMARK  121  A    between atoms: _307  and  _308
REMARK  122  A    between atoms: _310  and  _312
REMARK  123  A    between atoms: _312  and  _313
REMARK  124  A    between atoms: _315  and  _317
REMARK  125  A    between atoms: _317  and  _318
REMARK  126  A    between atoms: _321  and  _323
REMARK  127  A    between atoms: _323  and  _324
REMARK  128  A    between atoms: _323  and  _326
REMARK  129  A    between atoms: _326  and  _327
REMARK  130  A    between atoms: _337  and  _339
REMARK  131  A    between atoms: _339  and  _340
REMARK  132  A    between atoms: _339  and  _342
REMARK  133  A    between atoms: _342  and  _343
REMARK  134  A    between atoms: _343  and  _344
REMARK  135  A    between atoms: _347  and  _349
REMARK  136  A    between atoms: _349  and  _350
REMARK  137  A    between atoms: _352  and  _354
REMARK  138  A    between atoms: _354  and  _355
REMARK  139  A    between atoms: _354  and  _357
REMARK  140  A    between atoms: _360  and  _362
REMARK  141  A    between atoms: _362  and  _363
REMARK  142  A    between atoms: _362  and  _365
REMARK  143  A    between atoms: _365  and  _366
REMARK  144  A    between atoms: _366  and  _367
REMARK  145  A    between atoms: _369  and  _371
REMARK  146  A    between atoms: _371  and  _372
REMARK  147  A    between atoms: _374  and  _376
REMARK  148  A    between atoms: _376  and  _377
REMARK  149  A    between atoms: _379  and  _381
REMARK  150  A    between atoms: _381  and  _382
REMARK  151  A    between atoms: _381  and  _384
REMARK  152  A    between atoms: _387  and  _389
REMARK  153  A    between atoms: _389  and  _390
REMARK  154  A    between atoms: _389  and  _392
REMARK  155  A    between atoms: _392  and  _393
REMARK  156  A    between atoms: _396  and  _398
REMARK  157  A    between atoms: _398  and  _399
REMARK  158  A    between atoms: _398  and  _401
REMARK  159  A    between atoms: _401  and  _402
REMARK  160  A    between atoms: _407  and  _408
REMARK  161  A    between atoms: _410  and  _412
REMARK  162  A    between atoms: _412  and  _413
REMARK  163  A    between atoms: _412  and  _415
REMARK  164  A    between atoms: _415  and  _416
REMARK  165  A    between atoms: _422  and  _424
REMARK  166  A    between atoms: _424  and  _425
REMARK  167  A    between atoms: _424  and  _427
REMARK  168  A    between atoms: _427  and  _428
REMARK  169  A    between atoms: _428  and  _429
REMARK  170  A    between atoms: _434  and  _436
REMARK  171  A    between atoms: _436  and  _437
REMARK  172  A    between atoms: _436  and  _439
REMARK  173  A    between atoms: _439  and  _440
REMARK  174  A    between atoms: _445  and  _446
REMARK  175  A    between atoms: _448  and  _450
REMARK  176  A    between atoms: _450  and  _451
REMARK  177  A    between atoms: _454  and  _456
REMARK  178  A    between atoms: _456  and  _457
REMARK  179  A    between atoms: _456  and  _459
REMARK  180  A    between atoms: _459  and  _460
REMARK  181  A    between atoms: _466  and  _468
REMARK  182  A    between atoms: _468  and  _469
REMARK  183  A    between atoms: _468  and  _471
REMARK  184  A    between atoms: _471  and  _472
REMARK  185  A    between atoms: _474  and  _476
REMARK  186  A    between atoms: _476  and  _477
REMARK  187  A    between atoms: _476  and  _479
REMARK  188  A    between atoms: _479  and  _480
REMARK  189  A    between atoms: _483  and  _485
REMARK  190  A    between atoms: _485  and  _486
REMARK  191  A    between atoms: _485  and  _488
REMARK  192  A    between atoms: _488  and  _489
REMARK  193  A    between atoms: _493  and  _494
REMARK  194  A    between atoms: _499  and  _501
REMARK  195  A    between atoms: _501  and  _502
REMARK  196  A    between atoms: _505  and  _507
REMARK  197  A    between atoms: _507  and  _508
REMARK  198  A    between atoms: _507  and  _510
REMARK  199  A    between atoms: _510  and  _511
REMARK  200  A    between atoms: _514  and  _516
REMARK  201  A    between atoms: _516  and  _517
REMARK  202  A    between atoms: _516  and  _519
REMARK  203  A    between atoms: _519  and  _520
REMARK  204  A    between atoms: _530  and  _532
REMARK  205  A    between atoms: _532  and  _533
REMARK  206  A    between atoms: _532  and  _535
REMARK  207  A    between atoms: _535  and  _536
REMARK  208  A    between atoms: _536  and  _537
REMARK  209  A    between atoms: _539  and  _541
REMARK  210  A    between atoms: _541  and  _542
REMARK  211  A    between atoms: _541  and  _544
REMARK  212  A    between atoms: _544  and  _545
REMARK  213  A    between atoms: _548  and  _550
REMARK  214  A    between atoms: _550  and  _551
REMARK  215  A    between atoms: _550  and  _553
REMARK  216  A    between atoms: _553  and  _554
REMARK  217  A    between atoms: _557  and  _559
REMARK  218  A    between atoms: _559  and  _560
REMARK  219  A    between atoms: _563  and  _565
REMARK  220  A    between atoms: _565  and  _566
REMARK  221  A    between atoms: _568  and  _570
REMARK  222  A    between atoms: _570  and  _571
REMARK  223  A    between atoms: _570  and  _573
REMARK  224  A    between atoms: _573  and  _574
REMARK  225  A    between atoms: _579  and  _581
REMARK  226  A    between atoms: _581  and  _582
REMARK  227  A    between atoms: _581  and  _584
REMARK  228  A    between atoms: _584  and  _585
REMARK                            x       y       z     vdW  Elec       q    Type
REMARK                         _______ _______ _______ _____ _____    ______ ____
ROOT
ATOM      1  O   HOH     1     -11.082  16.688 -17.025  0.00  0.00    +0.000 OA
ENDROOT
TORSDOF 0
REMARK  Name = ../refined-set-2016/4c1u/4c1u_pocket.pdb
REMARK  228 active torsions:
REMARK  status: ('A' for Active; 'I' for Inactive)
REMARK    1  A    between atoms: _1  and  _3
REMARK    2  A    between atoms: _3  and  _4
REMARK    3  A    between atoms: _3  and  _6
REMARK    4  A    between atoms: _6  and  _7
REMARK    5  A    between atoms: _12  and  _14
REMARK    6  A    between atoms: _14  and  _15
REMARK    7  A    between atoms: _14  and  _17
REMARK    8  A    between atoms: _17  and  _18
REMARK    9  A    between atoms: _23  and  _25
REMARK   10  A    between atoms: _25  and  _26
REMARK   11  A    between atoms: _29  and  _31
REMARK   12  A    between atoms: _31  and  _32
REMARK   13  A    between atoms: _31  and  _34
REMARK   14  A    between atoms: _34  and  _35
REMARK   15  A    between atoms: _37  and  _39
REMARK   16  A    between atoms: _39  and  _40
REMARK   17  A    between atoms: _43  and  _45
REMARK   18  A    between atoms: _45  and  _46
REMARK   19  A    between atoms: _48  and  _50
REMARK   20  A    between atoms: _50  and  _51
REMARK   21  A    between atoms: _50  and  _53
REMARK   22  A    between atoms: _53  and  _54
REMARK   23  A    between atoms: _54  and  _55
REMARK   24  A    between atoms: _55  and  _56
REMARK   25  A    between atoms: _65  and  _67
REMARK   26  A    between atoms: _67  and  _68
REMARK   27  A    between atoms: _67  and  _70
REMARK   28  A    between atoms: _70  and  _71
REMARK   29  A    between atoms: _81  and  _83
REMARK   30  A    between atoms: _83  and  _84
REMARK   31  A    between atoms: _83  and  _86
REMARK   32  A    between atoms: _86  and  _87
REMARK   33  A    between atoms: _90  and  _92
REMARK   34  A    between atoms: _92  and  _93
REMARK   35  A    between atoms: _92  and  _95
REMARK   36  A    between atoms: _95  and  _96
REMARK   37  A    between atoms: _96  and  _97
REMARK   38  A    between atoms: _102  and  _104
REMARK   39  A    between atoms: _104  and  _105
REMARK   40  A    between atoms: _104  and  _107
REMARK   41  A    between atoms: _107  and  _108
REMARK   42  A    between atoms: _113  and  _115
REMARK   43  A    between atoms: _115  and  _116
REMARK   44  A    between atoms: _115  and  _118
REMARK   45  A    between atoms: _118  and  _119
REMARK   46  A    between atoms: _119  and  _120
REMARK   47  A    between atoms: _123  and  _125
REMARK   48  A    between atoms: _125  and  _126
REMARK   49  A    between atoms: _125  and  _128
REMARK   50  A    between atoms: _128  and  _129
REMARK   51  A    between atoms: _135  and  _137
REMARK   52  A    between atoms: _137  and  _138
REMARK   53  A    between atoms: _141  and  _143
REMARK   54  A    between atoms: _143  and  _144
REMARK   55  A    between atoms: _143  and  _146
REMARK   56  A    between atoms: _146  and  _147
REMARK   57  A    between atoms: _147  and  _148
REMARK   58  A    between atoms: _150  and  _152
REMARK   59  A    between atoms: _152  and  _153
REMARK   60  A    between atoms: _152  and  _155
REMARK   61  A    between atoms: _155  and  _156
REMARK   62  A    between atoms: _158  and  _160
REMARK   63  A    between atoms: _160  and  _161
REMARK   64  A    between atoms: _160  and  _163
REMARK   65  A    between atoms: _163  and  _164
REMARK   66  A    between atoms: _167  and  _169
REMARK   67  A    between atoms: _169  and  _170
REMARK   68  A    between atoms: _169  and  _172
REMARK   69  A    between atoms: _172  and  _173
REMARK   70  A    between atoms: _173  and  _174
REMARK   71  A    between atoms: _174  and  _175
REMARK   72  A    between atoms: _175  and  _176
REMARK   73  A    between atoms: _180  and  _182
REMARK   74  A    between atoms: _182  and  _183
REMARK   75  A    between atoms: _182  and  _185
REMARK   76  A    between atoms: _188  and  _190
REMARK   77  A    between atoms: _190  and  _191
REMARK   78  A    between atoms: _190  and  _193
REMARK   79  A    between atoms: _193  and  _194
REMARK   80  A    between atoms: _196  and  _198
REMARK   81  A    between atoms: _198  and  _199
REMARK   82  A    between atoms: _198  and  _201
REMARK   83  A    between atoms: _204  and  _206
REMARK   84  A    between atoms: _206  and  _207
REMARK   85  A    between atoms: _206  and  _209
REMARK   86  A    between atoms: _209  and  _210
REMARK   87  A    between atoms: _210  and  _211
REMARK   88  A    between atoms: _214  and  _216
REMARK   89  A    between atoms: _216  and  _217
REMARK   90  A    between atoms: _216  and  _219
REMARK   91  A    between atoms: _219  and  _220
REMARK   92  A    between atoms: _223  and  _225
REMARK   93  A    between atoms: _225  and  _226
REMARK   94  A    between atoms: _229  and  _231
REMARK   95  A    between atoms: _231  and  _232
REMARK   96  A    between atoms: _231  and  _234
REMARK   97  A    between atoms: _234  and  _235
REMARK   98  A    between atoms: _246  and  _247
REMARK   99  A    between atoms: _252  and  _254
REMARK  100  A    between atoms: _254  and  _255
REMARK  101  A    between atoms: _258  and  _260
REMARK  102  A    between atoms: _260  and  _261
REMARK  103  A    between atoms: _260  and  _263
REMARK  104  A    between atoms: _263  and  _264
REMARK  105  A    between atoms: _269  and  _271
REMARK  106  A    between atoms: _271  and  _272
REMARK  107  A    between atoms: _271  and  _274
REMARK  108  A    between atoms: _274  and  _275
REMARK  109  A    between atoms: _280  and  _281
REMARK  110  A    between atoms: _283  and  _285
REMARK  111  A    between atoms: _285  and  _286
REMARK  112  A    between atoms: _289  and  _291
REMARK  113  A    between atoms: _291  and  _292
REMARK  114  A    between atoms: _291  and  _294
REMARK  115  A    between atoms: _294  and  _295
REMARK  116  A    between atoms: _295  and  _296
REMARK  117  A    between atoms: _301  and  _303
REMARK  118  A    between atoms: _303  and  _304
REMARK  119  A    between atoms: _303  and  _306
REMARK  120  A    between atoms: _306  and  _307
REMARK  121  A    between atoms: _307  and  _308
REMARK  122  A    between atoms: _310  and  _312
REMARK  123  A    between atoms: _312  and  _313
REMARK  124  A    between atoms: _315  and  _317
REMARK  125  A    between atoms: _317  and  _318
REMARK  126  A    between atoms: _321  and  _323
REMARK  127  A    between atoms: _323  and  _324
REMARK  128  A    between atoms: _323  and  _326
REMARK  129  A    between atoms: _326  and  _327
REMARK  130  A    between atoms: _337  and  _339
REMARK  131  A    between atoms: _339  and  _340
REMARK  132  A    between atoms: _339  and  _342
REMARK  133  A    between atoms: _342  and  _343
REMARK  134  A    between atoms: _343  and  _344
REMARK  135  A    between atoms: _347  and  _349
REMARK  136  A    between atoms: _349  and  _350
REMARK  137  A    between atoms: _352  and  _354
REMARK  138  A    between atoms: _354  and  _355
REMARK  139  A    between atoms: _354  and  _357
REMARK  140  A    between atoms: _360  and  _362
REMARK  141  A    between atoms: _362  and  _363
REMARK  142  A    between atoms: _362  and  _365
REMARK  143  A    between atoms: _365  and  _366
REMARK  144  A    between atoms: _366  and  _367
REMARK  145  A    between atoms: _369  and  _371
REMARK  146  A    between atoms: _371  and  _372
REMARK  147  A    between atoms: _374  and  _376
REMARK  148  A    between atoms: _376  and  _377
REMARK  149  A    between atoms: _379  and  _381
REMARK  150  A    between atoms: _381  and  _382
REMARK  151  A    between atoms: _381  and  _384
REMARK  152  A    between atoms: _387  and  _389
REMARK  153  A    between atoms: _389  and  _390
REMARK  154  A    between atoms: _389  and  _392
REMARK  155  A    between atoms: _392  and  _393
REMARK  156  A    between atoms: _396  and  _398
REMARK  157  A    between atoms: _398  and  _399
REMARK  158  A    between atoms: _398  and  _401
REMARK  159  A    between atoms: _401  and  _402
REMARK  160  A    between atoms: _407  and  _408
REMARK  161  A    between atoms: _410  and  _412
REMARK  162  A    between atoms: _412  and  _413
REMARK  163  A    between atoms: _412  and  _415
REMARK  164  A    between atoms: _415  and  _416
REMARK  165  A    between atoms: _422  and  _424
REMARK  166  A    between atoms: _424  and  _425
REMARK  167  A    between atoms: _424  and  _427
REMARK  168  A    between atoms: _427  and  _428
REMARK  169  A    between atoms: _428  and  _429
REMARK  170  A    between atoms: _434  and  _436
REMARK  171  A    between atoms: _436  and  _437
REMARK  172  A    between atoms: _436  and  _439
REMARK  173  A    between atoms: _439  and  _440
REMARK  174  A    between atoms: _445  and  _446
REMARK  175  A    between atoms: _448  and  _450
REMARK  176  A    between atoms: _450  and  _451
REMARK  177  A    between atoms: _454  and  _456
REMARK  178  A    between atoms: _456  and  _457
REMARK  179  A    between atoms: _456  and  _459
REMARK  180  A    between atoms: _459  and  _460
REMARK  181  A    between atoms: _466  and  _468
REMARK  182  A    between atoms: _468  and  _469
REMARK  183  A    between atoms: _468  and  _471
REMARK  184  A    between atoms: _471  and  _472
REMARK  185  A    between atoms: _474  and  _476
REMARK  186  A    between atoms: _476  and  _477
REMARK  187  A    between atoms: _476  and  _479
REMARK  188  A    between atoms: _479  and  _480
REMARK  189  A    between atoms: _483  and  _485
REMARK  190  A    between atoms: _485  and  _486
REMARK  191  A    between atoms: _485  and  _488
REMARK  192  A    between atoms: _488  and  _489
REMARK  193  A    between atoms: _493  and  _494
REMARK  194  A    between atoms: _499  and  _501
REMARK  195  A    between atoms: _501  and  _502
REMARK  196  A    between atoms: _505  and  _507
REMARK  197  A    between atoms: _507  and  _508
REMARK  198  A    between atoms: _507  and  _510
REMARK  199  A    between atoms: _510  and  _511
REMARK  200  A    between atoms: _514  and  _516
REMARK  201  A    between atoms: _516  and  _517
REMARK  202  A    between atoms: _516  and  _519
REMARK  203  A    between atoms: _519  and  _520
REMARK  204  A    between atoms: _530  and  _532
REMARK  205  A    between atoms: _532  and  _533
REMARK  206  A    between atoms: _532  and  _535
REMARK  207  A    between atoms: _535  and  _536
REMARK  208  A    between atoms: _536  and  _537
REMARK  209  A    between atoms: _539  and  _541
REMARK  210  A    between atoms: _541  and  _542
REMARK  211  A    between atoms: _541  and  _544
REMARK  212  A    between atoms: _544  and  _545
REMARK  213  A    between atoms: _548  and  _550
REMARK  214  A    between atoms: _550  and  _551
REMARK  215  A    between atoms: _550  and  _553
REMARK  216  A    between atoms: _553  and  _554
REMARK  217  A    between atoms: _557  and  _559
REMARK  218  A    between atoms: _559  and  _560
REMARK  219  A    between atoms: _563  and  _565
REMARK  220  A    between atoms: _565  and  _566
REMARK  221  A    between atoms: _568  and  _570
REMARK  222  A    between atoms: _570  and  _571
REMARK  223  A    between atoms: _570  and  _573
REMARK  224  A    between atoms: _573  and  _574
REMARK  225  A    between atoms: _579  and  _581
REMARK  226  A    between atoms: _581  and  _582
REMARK  227  A    between atoms: _581  and  _584
REMARK  228  A    between atoms: _584  and  _585
REMARK                            x       y       z     vdW  Elec       q    Type
REMARK                         _______ _______ _______ _____ _____    ______ ____
ROOT
ATOM      1  O   HOH     1     -13.135  16.829 -16.036  0.00  0.00    +0.000 OA
ENDROOT
TORSDOF 0
REMARK  Name = ../refined-set-2016/4c1u/4c1u_pocket.pdb
REMARK  228 active torsions:
REMARK  status: ('A' for Active; 'I' for Inactive)
REMARK    1  A    between atoms: _1  and  _3
REMARK    2  A    between atoms: _3  and  _4
REMARK    3  A    between atoms: _3  and  _6
REMARK    4  A    between atoms: _6  and  _7
REMARK    5  A    between atoms: _12  and  _14
REMARK    6  A    between atoms: _14  and  _15
REMARK    7  A    between atoms: _14  and  _17
REMARK    8  A    between atoms: _17  and  _18
REMARK    9  A    between atoms: _23  and  _25
REMARK   10  A    between atoms: _25  and  _26
REMARK   11  A    between atoms: _29  and  _31
REMARK   12  A    between atoms: _31  and  _32
REMARK   13  A    between atoms: _31  and  _34
REMARK   14  A    between atoms: _34  and  _35
REMARK   15  A    between atoms: _37  and  _39
REMARK   16  A    between atoms: _39  and  _40
REMARK   17  A    between atoms: _43  and  _45
REMARK   18  A    between atoms: _45  and  _46
REMARK   19  A    between atoms: _48  and  _50
REMARK   20  A    between atoms: _50  and  _51
REMARK   21  A    between atoms: _50  and  _53
REMARK   22  A    between atoms: _53  and  _54
REMARK   23  A    between atoms: _54  and  _55
REMARK   24  A    between atoms: _55  and  _56
REMARK   25  A    between atoms: _65  and  _67
REMARK   26  A    between atoms: _67  and  _68
REMARK   27  A    between atoms: _67  and  _70
REMARK   28  A    between atoms: _70  and  _71
REMARK   29  A    between atoms: _81  and  _83
REMARK   30  A    between atoms: _83  and  _84
REMARK   31  A    between atoms: _83  and  _86
REMARK   32  A    between atoms: _86  and  _87
REMARK   33  A    between atoms: _90  and  _92
REMARK   34  A    between atoms: _92  and  _93
REMARK   35  A    between atoms: _92  and  _95
REMARK   36  A    between atoms: _95  and  _96
REMARK   37  A    between atoms: _96  and  _97
REMARK   38  A    between atoms: _102  and  _104
REMARK   39  A    between atoms: _104  and  _105
REMARK   40  A    between atoms: _104  and  _107
REMARK   41  A    between atoms: _107  and  _108
REMARK   42  A    between atoms: _113  and  _115
REMARK   43  A    between atoms: _115  and  _116
REMARK   44  A    between atoms: _115  and  _118
REMARK   45  A    between atoms: _118  and  _119
REMARK   46  A    between atoms: _119  and  _120
REMARK   47  A    between atoms: _123  and  _125
REMARK   48  A    between atoms: _125  and  _126
REMARK   49  A    between atoms: _125  and  _128
REMARK   50  A    between atoms: _128  and  _129
REMARK   51  A    between atoms: _135  and  _137
REMARK   52  A    between atoms: _137  and  _138
REMARK   53  A    between atoms: _141  and  _143
REMARK   54  A    between atoms: _143  and  _144
REMARK   55  A    between atoms: _143  and  _146
REMARK   56  A    between atoms: _146  and  _147
REMARK   57  A    between atoms: _147  and  _148
REMARK   58  A    between atoms: _150  and  _152
REMARK   59  A    between atoms: _152  and  _153
REMARK   60  A    between atoms: _152  and  _155
REMARK   61  A    between atoms: _155  and  _156
REMARK   62  A    between atoms: _158  and  _160
REMARK   63  A    between atoms: _160  and  _161
REMARK   64  A    between atoms: _160  and  _163
REMARK   65  A    between atoms: _163  and  _164
REMARK   66  A    between atoms: _167  and  _169
REMARK   67  A    between atoms: _169  and  _170
REMARK   68  A    between atoms: _169  and  _172
REMARK   69  A    between atoms: _172  and  _173
REMARK   70  A    between atoms: _173  and  _174
REMARK   71  A    between atoms: _174  and  _175
REMARK   72  A    between atoms: _175  and  _176
REMARK   73  A    between atoms: _180  and  _182
REMARK   74  A    between atoms: _182  and  _183
REMARK   75  A    between atoms: _182  and  _185
REMARK   76  A    between atoms: _188  and  _190
REMARK   77  A    between atoms: _190  and  _191
REMARK   78  A    between atoms: _190  and  _193
REMARK   79  A    between atoms: _193  and  _194
REMARK   80  A    between atoms: _196  and  _198
REMARK   81  A    between atoms: _198  and  _199
REMARK   82  A    between atoms: _198  and  _201
REMARK   83  A    between atoms: _204  and  _206
REMARK   84  A    between atoms: _206  and  _207
REMARK   85  A    between atoms: _206  and  _209
REMARK   86  A    between atoms: _209  and  _210
REMARK   87  A    between atoms: _210  and  _211
REMARK   88  A    between atoms: _214  and  _216
REMARK   89  A    between atoms: _216  and  _217
REMARK   90  A    between atoms: _216  and  _219
REMARK   91  A    between atoms: _219  and  _220
REMARK   92  A    between atoms: _223  and  _225
REMARK   93  A    between atoms: _225  and  _226
REMARK   94  A    between atoms: _229  and  _231
REMARK   95  A    between atoms: _231  and  _232
REMARK   96  A    between atoms: _231  and  _234
REMARK   97  A    between atoms: _234  and  _235
REMARK   98  A    between atoms: _246  and  _247
REMARK   99  A    between atoms: _252  and  _254
REMARK  100  A    between atoms: _254  and  _255
REMARK  101  A    between atoms: _258  and  _260
REMARK  102  A    between atoms: _260  and  _261
REMARK  103  A    between atoms: _260  and  _263
REMARK  104  A    between atoms: _263  and  _264
REMARK  105  A    between atoms: _269  and  _271
REMARK  106  A    between atoms: _271  and  _272
REMARK  107  A    between atoms: _271  and  _274
REMARK  108  A    between atoms: _274  and  _275
REMARK  109  A    between atoms: _280  and  _281
REMARK  110  A    between atoms: _283  and  _285
REMARK  111  A    between atoms: _285  and  _286
REMARK  112  A    between atoms: _289  and  _291
REMARK  113  A    between atoms: _291  and  _292
REMARK  114  A    between atoms: _291  and  _294
REMARK  115  A    between atoms: _294  and  _295
REMARK  116  A    between atoms: _295  and  _296
REMARK  117  A    between atoms: _301  and  _303
REMARK  118  A    between atoms: _303  and  _304
REMARK  119  A    between atoms: _303  and  _306
REMARK  120  A    between atoms: _306  and  _307
REMARK  121  A    between atoms: _307  and  _308
REMARK  122  A    between atoms: _310  and  _312
REMARK  123  A    between atoms: _312  and  _313
REMARK  124  A    between atoms: _315  and  _317
REMARK  125  A    between atoms: _317  and  _318
REMARK  126  A    between atoms: _321  and  _323
REMARK  127  A    between atoms: _323  and  _324
REMARK  128  A    between atoms: _323  and  _326
REMARK  129  A    between atoms: _326  and  _327
REMARK  130  A    between atoms: _337  and  _339
REMARK  131  A    between atoms: _339  and  _340
REMARK  132  A    between atoms: _339  and  _342
REMARK  133  A    between atoms: _342  and  _343
REMARK  134  A    between atoms: _343  and  _344
REMARK  135  A    between atoms: _347  and  _349
REMARK  136  A    between atoms: _349  and  _350
REMARK  137  A    between atoms: _352  and  _354
REMARK  138  A    between atoms: _354  and  _355
REMARK  139  A    between atoms: _354  and  _357
REMARK  140  A    between atoms: _360  and  _362
REMARK  141  A    between atoms: _362  and  _363
REMARK  142  A    between atoms: _362  and  _365
REMARK  143  A    between atoms: _365  and  _366
REMARK  144  A    between atoms: _366  and  _367
REMARK  145  A    between atoms: _369  and  _371
REMARK  146  A    between atoms: _371  and  _372
REMARK  147  A    between atoms: _374  and  _376
REMARK  148  A    between atoms: _376  and  _377
REMARK  149  A    between atoms: _379  and  _381
REMARK  150  A    between atoms: _381  and  _382
REMARK  151  A    between atoms: _381  and  _384
REMARK  152  A    between atoms: _387  and  _389
REMARK  153  A    between atoms: _389  and  _390
REMARK  154  A    between atoms: _389  and  _392
REMARK  155  A    between atoms: _392  and  _393
REMARK  156  A    between atoms: _396  and  _398
REMARK  157  A    between atoms: _398  and  _399
REMARK  158  A    between atoms: _398  and  _401
REMARK  159  A    between atoms: _401  and  _402
REMARK  160  A    between atoms: _407  and  _408
REMARK  161  A    between atoms: _410  and  _412
REMARK  162  A    between atoms: _412  and  _413
REMARK  163  A    between atoms: _412  and  _415
REMARK  164  A    between atoms: _415  and  _416
REMARK  165  A    between atoms: _422  and  _424
REMARK  166  A    between atoms: _424  and  _425
REMARK  167  A    between atoms: _424  and  _427
REMARK  168  A    between atoms: _427  and  _428
REMARK  169  A    between atoms: _428  and  _429
REMARK  170  A    between atoms: _434  and  _436
REMARK  171  A    between atoms: _436  and  _437
REMARK  172  A    between atoms: _436  and  _439
REMARK  173  A    between atoms: _439  and  _440
REMARK  174  A    between atoms: _445  and  _446
REMARK  175  A    between atoms: _448  and  _450
REMARK  176  A    between atoms: _450  and  _451
REMARK  177  A    between atoms: _454  and  _456
REMARK  178  A    between atoms: _456  and  _457
REMARK  179  A    between atoms: _456  and  _459
REMARK  180  A    between atoms: _459  and  _460
REMARK  181  A    between atoms: _466  and  _468
REMARK  182  A    between atoms: _468  and  _469
REMARK  183  A    between atoms: _468  and  _471
REMARK  184  A    between atoms: _471  and  _472
REMARK  185  A    between atoms: _474  and  _476
REMARK  186  A    between atoms: _476  and  _477
REMARK  187  A    between atoms: _476  and  _479
REMARK  188  A    between atoms: _479  and  _480
REMARK  189  A    between atoms: _483  and  _485
REMARK  190  A    between atoms: _485  and  _486
REMARK  191  A    between atoms: _485  and  _488
REMARK  192  A    between atoms: _488  and  _489
REMARK  193  A    between atoms: _493  and  _494
REMARK  194  A    between atoms: _499  and  _501
REMARK  195  A    between atoms: _501  and  _502
REMARK  196  A    between atoms: _505  and  _507
REMARK  197  A    between atoms: _507  and  _508
REMARK  198  A    between atoms: _507  and  _510
REMARK  199  A    between atoms: _510  and  _511
REMARK  200  A    between atoms: _514  and  _516
REMARK  201  A    between atoms: _516  and  _517
REMARK  202  A    between atoms: _516  and  _519
REMARK  203  A    between atoms: _519  and  _520
REMARK  204  A    between atoms: _530  and  _532
REMARK  205  A    between atoms: _532  and  _533
REMARK  206  A    between atoms: _532  and  _535
REMARK  207  A    between atoms: _535  and  _536
REMARK  208  A    between atoms: _536  and  _537
REMARK  209  A    between atoms: _539  and  _541
REMARK  210  A    between atoms: _541  and  _542
REMARK  211  A    between atoms: _541  and  _544
REMARK  212  A    between atoms: _544  and  _545
REMARK  213  A    between atoms: _548  and  _550
REMARK  214  A    between atoms: _550  and  _551
REMARK  215  A    between atoms: _550  and  _553
REMARK  216  A    between atoms: _553  and  _554
REMARK  217  A    between atoms: _557  and  _559
REMARK  218  A    between atoms: _559  and  _560
REMARK  219  A    between atoms: _563  and  _565
REMARK  220  A    between atoms: _565  and  _566
REMARK  221  A    between atoms: _568  and  _570
REMARK  222  A    between atoms: _570  and  _571
REMARK  223  A    between atoms: _570  and  _573
REMARK  224  A    between atoms: _573  and  _574
REMARK  225  A    between atoms: _579  and  _581
REMARK  226  A    between atoms: _581  and  _582
REMARK  227  A    between atoms: _581  and  _584
REMARK  228  A    between atoms: _584  and  _585
REMARK                            x       y       z     vdW  Elec       q    Type
REMARK                         _______ _______ _______ _____ _____    ______ ____
ROOT
ATOM      1  O   HOH     1     -11.916  18.064 -12.299  0.00  0.00    +0.000 OA
ENDROOT
TORSDOF 0
REMARK  Name = ../refined-set-2016/4c1u/4c1u_pocket.pdb
REMARK  228 active torsions:
REMARK  status: ('A' for Active; 'I' for Inactive)
REMARK    1  A    between atoms: _1  and  _3
REMARK    2  A    between atoms: _3  and  _4
REMARK    3  A    between atoms: _3  and  _6
REMARK    4  A    between atoms: _6  and  _7
REMARK    5  A    between atoms: _12  and  _14
REMARK    6  A    between atoms: _14  and  _15
REMARK    7  A    between atoms: _14  and  _17
REMARK    8  A    between atoms: _17  and  _18
REMARK    9  A    between atoms: _23  and  _25
REMARK   10  A    between atoms: _25  and  _26
REMARK   11  A    between atoms: _29  and  _31
REMARK   12  A    between atoms: _31  and  _32
REMARK   13  A    between atoms: _31  and  _34
REMARK   14  A    between atoms: _34  and  _35
REMARK   15  A    between atoms: _37  and  _39
REMARK   16  A    between atoms: _39  and  _40
REMARK   17  A    between atoms: _43  and  _45
REMARK   18  A    between atoms: _45  and  _46
REMARK   19  A    between atoms: _48  and  _50
REMARK   20  A    between atoms: _50  and  _51
REMARK   21  A    between atoms: _50  and  _53
REMARK   22  A    between atoms: _53  and  _54
REMARK   23  A    between atoms: _54  and  _55
REMARK   24  A    between atoms: _55  and  _56
REMARK   25  A    between atoms: _65  and  _67
REMARK   26  A    between atoms: _67  and  _68
REMARK   27  A    between atoms: _67  and  _70
REMARK   28  A    between atoms: _70  and  _71
REMARK   29  A    between atoms: _81  and  _83
REMARK   30  A    between atoms: _83  and  _84
REMARK   31  A    between atoms: _83  and  _86
REMARK   32  A    between atoms: _86  and  _87
REMARK   33  A    between atoms: _90  and  _92
REMARK   34  A    between atoms: _92  and  _93
REMARK   35  A    between atoms: _92  and  _95
REMARK   36  A    between atoms: _95  and  _96
REMARK   37  A    between atoms: _96  and  _97
REMARK   38  A    between atoms: _102  and  _104
REMARK   39  A    between atoms: _104  and  _105
REMARK   40  A    between atoms: _104  and  _107
REMARK   41  A    between atoms: _107  and  _108
REMARK   42  A    between atoms: _113  and  _115
REMARK   43  A    between atoms: _115  and  _116
REMARK   44  A    between atoms: _115  and  _118
REMARK   45  A    between atoms: _118  and  _119
REMARK   46  A    between atoms: _119  and  _120
REMARK   47  A    between atoms: _123  and  _125
REMARK   48  A    between atoms: _125  and  _126
REMARK   49  A    between atoms: _125  and  _128
REMARK   50  A    between atoms: _128  and  _129
REMARK   51  A    between atoms: _135  and  _137
REMARK   52  A    between atoms: _137  and  _138
REMARK   53  A    between atoms: _141  and  _143
REMARK   54  A    between atoms: _143  and  _144
REMARK   55  A    between atoms: _143  and  _146
REMARK   56  A    between atoms: _146  and  _147
REMARK   57  A    between atoms: _147  and  _148
REMARK   58  A    between atoms: _150  and  _152
REMARK   59  A    between atoms: _152  and  _153
REMARK   60  A    between atoms: _152  and  _155
REMARK   61  A    between atoms: _155  and  _156
REMARK   62  A    between atoms: _158  and  _160
REMARK   63  A    between atoms: _160  and  _161
REMARK   64  A    between atoms: _160  and  _163
REMARK   65  A    between atoms: _163  and  _164
REMARK   66  A    between atoms: _167  and  _169
REMARK   67  A    between atoms: _169  and  _170
REMARK   68  A    between atoms: _169  and  _172
REMARK   69  A    between atoms: _172  and  _173
REMARK   70  A    between atoms: _173  and  _174
REMARK   71  A    between atoms: _174  and  _175
REMARK   72  A    between atoms: _175  and  _176
REMARK   73  A    between atoms: _180  and  _182
REMARK   74  A    between atoms: _182  and  _183
REMARK   75  A    between atoms: _182  and  _185
REMARK   76  A    between atoms: _188  and  _190
REMARK   77  A    between atoms: _190  and  _191
REMARK   78  A    between atoms: _190  and  _193
REMARK   79  A    between atoms: _193  and  _194
REMARK   80  A    between atoms: _196  and  _198
REMARK   81  A    between atoms: _198  and  _199
REMARK   82  A    between atoms: _198  and  _201
REMARK   83  A    between atoms: _204  and  _206
REMARK   84  A    between atoms: _206  and  _207
REMARK   85  A    between atoms: _206  and  _209
REMARK   86  A    between atoms: _209  and  _210
REMARK   87  A    between atoms: _210  and  _211
REMARK   88  A    between atoms: _214  and  _216
REMARK   89  A    between atoms: _216  and  _217
REMARK   90  A    between atoms: _216  and  _219
REMARK   91  A    between atoms: _219  and  _220
REMARK   92  A    between atoms: _223  and  _225
REMARK   93  A    between atoms: _225  and  _226
REMARK   94  A    between atoms: _229  and  _231
REMARK   95  A    between atoms: _231  and  _232
REMARK   96  A    between atoms: _231  and  _234
REMARK   97  A    between atoms: _234  and  _235
REMARK   98  A    between atoms: _246  and  _247
REMARK   99  A    between atoms: _252  and  _254
REMARK  100  A    between atoms: _254  and  _255
REMARK  101  A    between atoms: _258  and  _260
REMARK  102  A    between atoms: _260  and  _261
REMARK  103  A    between atoms: _260  and  _263
REMARK  104  A    between atoms: _263  and  _264
REMARK  105  A    between atoms: _269  and  _271
REMARK  106  A    between atoms: _271  and  _272
REMARK  107  A    between atoms: _271  and  _274
REMARK  108  A    between atoms: _274  and  _275
REMARK  109  A    between atoms: _280  and  _281
REMARK  110  A    between atoms: _283  and  _285
REMARK  111  A    between atoms: _285  and  _286
REMARK  112  A    between atoms: _289  and  _291
REMARK  113  A    between atoms: _291  and  _292
REMARK  114  A    between atoms: _291  and  _294
REMARK  115  A    between atoms: _294  and  _295
REMARK  116  A    between atoms: _295  and  _296
REMARK  117  A    between atoms: _301  and  _303
REMARK  118  A    between atoms: _303  and  _304
REMARK  119  A    between atoms: _303  and  _306
REMARK  120  A    between atoms: _306  and  _307
REMARK  121  A    between atoms: _307  and  _308
REMARK  122  A    between atoms: _310  and  _312
REMARK  123  A    between atoms: _312  and  _313
REMARK  124  A    between atoms: _315  and  _317
REMARK  125  A    between atoms: _317  and  _318
REMARK  126  A    between atoms: _321  and  _323
REMARK  127  A    between atoms: _323  and  _324
REMARK  128  A    between atoms: _323  and  _326
REMARK  129  A    between atoms: _326  and  _327
REMARK  130  A    between atoms: _337  and  _339
REMARK  131  A    between atoms: _339  and  _340
REMARK  132  A    between atoms: _339  and  _342
REMARK  133  A    between atoms: _342  and  _343
REMARK  134  A    between atoms: _343  and  _344
REMARK  135  A    between atoms: _347  and  _349
REMARK  136  A    between atoms: _349  and  _350
REMARK  137  A    between atoms: _352  and  _354
REMARK  138  A    between atoms: _354  and  _355
REMARK  139  A    between atoms: _354  and  _357
REMARK  140  A    between atoms: _360  and  _362
REMARK  141  A    between atoms: _362  and  _363
REMARK  142  A    between atoms: _362  and  _365
REMARK  143  A    between atoms: _365  and  _366
REMARK  144  A    between atoms: _366  and  _367
REMARK  145  A    between atoms: _369  and  _371
REMARK  146  A    between atoms: _371  and  _372
REMARK  147  A    between atoms: _374  and  _376
REMARK  148  A    between atoms: _376  and  _377
REMARK  149  A    between atoms: _379  and  _381
REMARK  150  A    between atoms: _381  and  _382
REMARK  151  A    between atoms: _381  and  _384
REMARK  152  A    between atoms: _387  and  _389
REMARK  153  A    between atoms: _389  and  _390
REMARK  154  A    between atoms: _389  and  _392
REMARK  155  A    between atoms: _392  and  _393
REMARK  156  A    between atoms: _396  and  _398
REMARK  157  A    between atoms: _398  and  _399
REMARK  158  A    between atoms: _398  and  _401
REMARK  159  A    between atoms: _401  and  _402
REMARK  160  A    between atoms: _407  and  _408
REMARK  161  A    between atoms: _410  and  _412
REMARK  162  A    between atoms: _412  and  _413
REMARK  163  A    between atoms: _412  and  _415
REMARK  164  A    between atoms: _415  and  _416
REMARK  165  A    between atoms: _422  and  _424
REMARK  166  A    between atoms: _424  and  _425
REMARK  167  A    between atoms: _424  and  _427
REMARK  168  A    between atoms: _427  and  _428
REMARK  169  A    between atoms: _428  and  _429
REMARK  170  A    between atoms: _434  and  _436
REMARK  171  A    between atoms: _436  and  _437
REMARK  172  A    between atoms: _436  and  _439
REMARK  173  A    between atoms: _439  and  _440
REMARK  174  A    between atoms: _445  and  _446
REMARK  175  A    between atoms: _448  and  _450
REMARK  176  A    between atoms: _450  and  _451
REMARK  177  A    between atoms: _454  and  _456
REMARK  178  A    between atoms: _456  and  _457
REMARK  179  A    between atoms: _456  and  _459
REMARK  180  A    between atoms: _459  and  _460
REMARK  181  A    between atoms: _466  and  _468
REMARK  182  A    between atoms: _468  and  _469
REMARK  183  A    between atoms: _468  and  _471
REMARK  184  A    between atoms: _471  and  _472
REMARK  185  A    between atoms: _474  and  _476
REMARK  186  A    between atoms: _476  and  _477
REMARK  187  A    between atoms: _476  and  _479
REMARK  188  A    between atoms: _479  and  _480
REMARK  189  A    between atoms: _483  and  _485
REMARK  190  A    between atoms: _485  and  _486
REMARK  191  A    between atoms: _485  and  _488
REMARK  192  A    between atoms: _488  and  _489
REMARK  193  A    between atoms: _493  and  _494
REMARK  194  A    between atoms: _499  and  _501
REMARK  195  A    between atoms: _501  and  _502
REMARK  196  A    between atoms: _505  and  _507
REMARK  197  A    between atoms: _507  and  _508
REMARK  198  A    between atoms: _507  and  _510
REMARK  199  A    between atoms: _510  and  _511
REMARK  200  A    between atoms: _514  and  _516
REMARK  201  A    between atoms: _516  and  _517
REMARK  202  A    between atoms: _516  and  _519
REMARK  203  A    between atoms: _519  and  _520
REMARK  204  A    between atoms: _530  and  _532
REMARK  205  A    between atoms: _532  and  _533
REMARK  206  A    between atoms: _532  and  _535
REMARK  207  A    between atoms: _535  and  _536
REMARK  208  A    between atoms: _536  and  _537
REMARK  209  A    between atoms: _539  and  _541
REMARK  210  A    between atoms: _541  and  _542
REMARK  211  A    between atoms: _541  and  _544
REMARK  212  A    between atoms: _544  and  _545
REMARK  213  A    between atoms: _548  and  _550
REMARK  214  A    between atoms: _550  and  _551
REMARK  215  A    between atoms: _550  and  _553
REMARK  216  A    between atoms: _553  and  _554
REMARK  217  A    between atoms: _557  and  _559
REMARK  218  A    between atoms: _559  and  _560
REMARK  219  A    between atoms: _563  and  _565
REMARK  220  A    between atoms: _565  and  _566
REMARK  221  A    between atoms: _568  and  _570
REMARK  222  A    between atoms: _570  and  _571
REMARK  223  A    between atoms: _570  and  _573
REMARK  224  A    between atoms: _573  and  _574
REMARK  225  A    between atoms: _579  and  _581
REMARK  226  A    between atoms: _581  and  _582
REMARK  227  A    between atoms: _581  and  _584
REMARK  228  A    between atoms: _584  and  _585
REMARK                            x       y       z     vdW  Elec       q    Type
REMARK                         _______ _______ _______ _____ _____    ______ ____
ROOT
ATOM      1  O   HOH     1     -11.726  18.799  -9.868  0.00  0.00    +0.000 OA
ENDROOT
TORSDOF 0
REMARK  Name = ../refined-set-2016/4c1u/4c1u_pocket.pdb
REMARK  228 active torsions:
REMARK  status: ('A' for Active; 'I' for Inactive)
REMARK    1  A    between atoms: _1  and  _3
REMARK    2  A    between atoms: _3  and  _4
REMARK    3  A    between atoms: _3  and  _6
REMARK    4  A    between atoms: _6  and  _7
REMARK    5  A    between atoms: _12  and  _14
REMARK    6  A    between atoms: _14  and  _15
REMARK    7  A    between atoms: _14  and  _17
REMARK    8  A    between atoms: _17  and  _18
REMARK    9  A    between atoms: _23  and  _25
REMARK   10  A    between atoms: _25  and  _26
REMARK   11  A    between atoms: _29  and  _31
REMARK   12  A    between atoms: _31  and  _32
REMARK   13  A    between atoms: _31  and  _34
REMARK   14  A    between atoms: _34  and  _35
REMARK   15  A    between atoms: _37  and  _39
REMARK   16  A    between atoms: _39  and  _40
REMARK   17  A    between atoms: _43  and  _45
REMARK   18  A    between atoms: _45  and  _46
REMARK   19  A    between atoms: _48  and  _50
REMARK   20  A    between atoms: _50  and  _51
REMARK   21  A    between atoms: _50  and  _53
REMARK   22  A    between atoms: _53  and  _54
REMARK   23  A    between atoms: _54  and  _55
REMARK   24  A    between atoms: _55  and  _56
REMARK   25  A    between atoms: _65  and  _67
REMARK   26  A    between atoms: _67  and  _68
REMARK   27  A    between atoms: _67  and  _70
REMARK   28  A    between atoms: _70  and  _71
REMARK   29  A    between atoms: _81  and  _83
REMARK   30  A    between atoms: _83  and  _84
REMARK   31  A    between atoms: _83  and  _86
REMARK   32  A    between atoms: _86  and  _87
REMARK   33  A    between atoms: _90  and  _92
REMARK   34  A    between atoms: _92  and  _93
REMARK   35  A    between atoms: _92  and  _95
REMARK   36  A    between atoms: _95  and  _96
REMARK   37  A    between atoms: _96  and  _97
REMARK   38  A    between atoms: _102  and  _104
REMARK   39  A    between atoms: _104  and  _105
REMARK   40  A    between atoms: _104  and  _107
REMARK   41  A    between atoms: _107  and  _108
REMARK   42  A    between atoms: _113  and  _115
REMARK   43  A    between atoms: _115  and  _116
REMARK   44  A    between atoms: _115  and  _118
REMARK   45  A    between atoms: _118  and  _119
REMARK   46  A    between atoms: _119  and  _120
REMARK   47  A    between atoms: _123  and  _125
REMARK   48  A    between atoms: _125  and  _126
REMARK   49  A    between atoms: _125  and  _128
REMARK   50  A    between atoms: _128  and  _129
REMARK   51  A    between atoms: _135  and  _137
REMARK   52  A    between atoms: _137  and  _138
REMARK   53  A    between atoms: _141  and  _143
REMARK   54  A    between atoms: _143  and  _144
REMARK   55  A    between atoms: _143  and  _146
REMARK   56  A    between atoms: _146  and  _147
REMARK   57  A    between atoms: _147  and  _148
REMARK   58  A    between atoms: _150  and  _152
REMARK   59  A    between atoms: _152  and  _153
REMARK   60  A    between atoms: _152  and  _155
REMARK   61  A    between atoms: _155  and  _156
REMARK   62  A    between atoms: _158  and  _160
REMARK   63  A    between atoms: _160  and  _161
REMARK   64  A    between atoms: _160  and  _163
REMARK   65  A    between atoms: _163  and  _164
REMARK   66  A    between atoms: _167  and  _169
REMARK   67  A    between atoms: _169  and  _170
REMARK   68  A    between atoms: _169  and  _172
REMARK   69  A    between atoms: _172  and  _173
REMARK   70  A    between atoms: _173  and  _174
REMARK   71  A    between atoms: _174  and  _175
REMARK   72  A    between atoms: _175  and  _176
REMARK   73  A    between atoms: _180  and  _182
REMARK   74  A    between atoms: _182  and  _183
REMARK   75  A    between atoms: _182  and  _185
REMARK   76  A    between atoms: _188  and  _190
REMARK   77  A    between atoms: _190  and  _191
REMARK   78  A    between atoms: _190  and  _193
REMARK   79  A    between atoms: _193  and  _194
REMARK   80  A    between atoms: _196  and  _198
REMARK   81  A    between atoms: _198  and  _199
REMARK   82  A    between atoms: _198  and  _201
REMARK   83  A    between atoms: _204  and  _206
REMARK   84  A    between atoms: _206  and  _207
REMARK   85  A    between atoms: _206  and  _209
REMARK   86  A    between atoms: _209  and  _210
REMARK   87  A    between atoms: _210  and  _211
REMARK   88  A    between atoms: _214  and  _216
REMARK   89  A    between atoms: _216  and  _217
REMARK   90  A    between atoms: _216  and  _219
REMARK   91  A    between atoms: _219  and  _220
REMARK   92  A    between atoms: _223  and  _225
REMARK   93  A    between atoms: _225  and  _226
REMARK   94  A    between atoms: _229  and  _231
REMARK   95  A    between atoms: _231  and  _232
REMARK   96  A    between atoms: _231  and  _234
REMARK   97  A    between atoms: _234  and  _235
REMARK   98  A    between atoms: _246  and  _247
REMARK   99  A    between atoms: _252  and  _254
REMARK  100  A    between atoms: _254  and  _255
REMARK  101  A    between atoms: _258  and  _260
REMARK  102  A    between atoms: _260  and  _261
REMARK  103  A    between atoms: _260  and  _263
REMARK  104  A    between atoms: _263  and  _264
REMARK  105  A    between atoms: _269  and  _271
REMARK  106  A    between atoms: _271  and  _272
REMARK  107  A    between atoms: _271  and  _274
REMARK  108  A    between atoms: _274  and  _275
REMARK  109  A    between atoms: _280  and  _281
REMARK  110  A    between atoms: _283  and  _285
REMARK  111  A    between atoms: _285  and  _286
REMARK  112  A    between atoms: _289  and  _291
REMARK  113  A    between atoms: _291  and  _292
REMARK  114  A    between atoms: _291  and  _294
REMARK  115  A    between atoms: _294  and  _295
REMARK  116  A    between atoms: _295  and  _296
REMARK  117  A    between atoms: _301  and  _303
REMARK  118  A    between atoms: _303  and  _304
REMARK  119  A    between atoms: _303  and  _306
REMARK  120  A    between atoms: _306  and  _307
REMARK  121  A    between atoms: _307  and  _308
REMARK  122  A    between atoms: _310  and  _312
REMARK  123  A    between atoms: _312  and  _313
REMARK  124  A    between atoms: _315  and  _317
REMARK  125  A    between atoms: _317  and  _318
REMARK  126  A    between atoms: _321  and  _323
REMARK  127  A    between atoms: _323  and  _324
REMARK  128  A    between atoms: _323  and  _326
REMARK  129  A    between atoms: _326  and  _327
REMARK  130  A    between atoms: _337  and  _339
REMARK  131  A    between atoms: _339  and  _340
REMARK  132  A    between atoms: _339  and  _342
REMARK  133  A    between atoms: _342  and  _343
REMARK  134  A    between atoms: _343  and  _344
REMARK  135  A    between atoms: _347  and  _349
REMARK  136  A    between atoms: _349  and  _350
REMARK  137  A    between atoms: _352  and  _354
REMARK  138  A    between atoms: _354  and  _355
REMARK  139  A    between atoms: _354  and  _357
REMARK  140  A    between atoms: _360  and  _362
REMARK  141  A    between atoms: _362  and  _363
REMARK  142  A    between atoms: _362  and  _365
REMARK  143  A    between atoms: _365  and  _366
REMARK  144  A    between atoms: _366  and  _367
REMARK  145  A    between atoms: _369  and  _371
REMARK  146  A    between atoms: _371  and  _372
REMARK  147  A    between atoms: _374  and  _376
REMARK  148  A    between atoms: _376  and  _377
REMARK  149  A    between atoms: _379  and  _381
REMARK  150  A    between atoms: _381  and  _382
REMARK  151  A    between atoms: _381  and  _384
REMARK  152  A    between atoms: _387  and  _389
REMARK  153  A    between atoms: _389  and  _390
REMARK  154  A    between atoms: _389  and  _392
REMARK  155  A    between atoms: _392  and  _393
REMARK  156  A    between atoms: _396  and  _398
REMARK  157  A    between atoms: _398  and  _399
REMARK  158  A    between atoms: _398  and  _401
REMARK  159  A    between atoms: _401  and  _402
REMARK  160  A    between atoms: _407  and  _408
REMARK  161  A    between atoms: _410  and  _412
REMARK  162  A    between atoms: _412  and  _413
REMARK  163  A    between atoms: _412  and  _415
REMARK  164  A    between atoms: _415  and  _416
REMARK  165  A    between atoms: _422  and  _424
REMARK  166  A    between atoms: _424  and  _425
REMARK  167  A    between atoms: _424  and  _427
REMARK  168  A    between atoms: _427  and  _428
REMARK  169  A    between atoms: _428  and  _429
REMARK  170  A    between atoms: _434  and  _436
REMARK  171  A    between atoms: _436  and  _437
REMARK  172  A    between atoms: _436  and  _439
REMARK  173  A    between atoms: _439  and  _440
REMARK  174  A    between atoms: _445  and  _446
REMARK  175  A    between atoms: _448  and  _450
REMARK  176  A    between atoms: _450  and  _451
REMARK  177  A    between atoms: _454  and  _456
REMARK  178  A    between atoms: _456  and  _457
REMARK  179  A    between atoms: _456  and  _459
REMARK  180  A    between atoms: _459  and  _460
REMARK  181  A    between atoms: _466  and  _468
REMARK  182  A    between atoms: _468  and  _469
REMARK  183  A    between atoms: _468  and  _471
REMARK  184  A    between atoms: _471  and  _472
REMARK  185  A    between atoms: _474  and  _476
REMARK  186  A    between atoms: _476  and  _477
REMARK  187  A    between atoms: _476  and  _479
REMARK  188  A    between atoms: _479  and  _480
REMARK  189  A    between atoms: _483  and  _485
REMARK  190  A    between atoms: _485  and  _486
REMARK  191  A    between atoms: _485  and  _488
REMARK  192  A    between atoms: _488  and  _489
REMARK  193  A    between atoms: _493  and  _494
REMARK  194  A    between atoms: _499  and  _501
REMARK  195  A    between atoms: _501  and  _502
REMARK  196  A    between atoms: _505  and  _507
REMARK  197  A    between atoms: _507  and  _508
REMARK  198  A    between atoms: _507  and  _510
REMARK  199  A    between atoms: _510  and  _511
REMARK  200  A    between atoms: _514  and  _516
REMARK  201  A    between atoms: _516  and  _517
REMARK  202  A    between atoms: _516  and  _519
REMARK  203  A    between atoms: _519  and  _520
REMARK  204  A    between atoms: _530  and  _532
REMARK  205  A    between atoms: _532  and  _533
REMARK  206  A    between atoms: _532  and  _535
REMARK  207  A    between atoms: _535  and  _536
REMARK  208  A    between atoms: _536  and  _537
REMARK  209  A    between atoms: _539  and  _541
REMARK  210  A    between atoms: _541  and  _542
REMARK  211  A    between atoms: _541  and  _544
REMARK  212  A    between atoms: _544  and  _545
REMARK  213  A    between atoms: _548  and  _550
REMARK  214  A    between atoms: _550  and  _551
REMARK  215  A    between atoms: _550  and  _553
REMARK  216  A    between atoms: _553  and  _554
REMARK  217  A    between atoms: _557  and  _559
REMARK  218  A    between atoms: _559  and  _560
REMARK  219  A    between atoms: _563  and  _565
REMARK  220  A    between atoms: _565  and  _566
REMARK  221  A    between atoms: _568  and  _570
REMARK  222  A    between atoms: _570  and  _571
REMARK  223  A    between atoms: _570  and  _573
REMARK  224  A    between atoms: _573  and  _574
REMARK  225  A    between atoms: _579  and  _581
REMARK  226  A    between atoms: _581  and  _582
REMARK  227  A    between atoms: _581  and  _584
REMARK  228  A    between atoms: _584  and  _585
REMARK                            x       y       z     vdW  Elec       q    Type
REMARK                         _______ _______ _______ _____ _____    ______ ____
ROOT
ATOM      1  O   HOH     1      -9.680  21.088  -6.549  0.00  0.00    +0.000 OA
ENDROOT
TORSDOF 0
REMARK  Name = ../refined-set-2016/4c1u/4c1u_pocket.pdb
REMARK  228 active torsions:
REMARK  status: ('A' for Active; 'I' for Inactive)
REMARK    1  A    between atoms: _1  and  _3
REMARK    2  A    between atoms: _3  and  _4
REMARK    3  A    between atoms: _3  and  _6
REMARK    4  A    between atoms: _6  and  _7
REMARK    5  A    between atoms: _12  and  _14
REMARK    6  A    between atoms: _14  and  _15
REMARK    7  A    between atoms: _14  and  _17
REMARK    8  A    between atoms: _17  and  _18
REMARK    9  A    between atoms: _23  and  _25
REMARK   10  A    between atoms: _25  and  _26
REMARK   11  A    between atoms: _29  and  _31
REMARK   12  A    between atoms: _31  and  _32
REMARK   13  A    between atoms: _31  and  _34
REMARK   14  A    between atoms: _34  and  _35
REMARK   15  A    between atoms: _37  and  _39
REMARK   16  A    between atoms: _39  and  _40
REMARK   17  A    between atoms: _43  and  _45
REMARK   18  A    between atoms: _45  and  _46
REMARK   19  A    between atoms: _48  and  _50
REMARK   20  A    between atoms: _50  and  _51
REMARK   21  A    between atoms: _50  and  _53
REMARK   22  A    between atoms: _53  and  _54
REMARK   23  A    between atoms: _54  and  _55
REMARK   24  A    between atoms: _55  and  _56
REMARK   25  A    between atoms: _65  and  _67
REMARK   26  A    between atoms: _67  and  _68
REMARK   27  A    between atoms: _67  and  _70
REMARK   28  A    between atoms: _70  and  _71
REMARK   29  A    between atoms: _81  and  _83
REMARK   30  A    between atoms: _83  and  _84
REMARK   31  A    between atoms: _83  and  _86
REMARK   32  A    between atoms: _86  and  _87
REMARK   33  A    between atoms: _90  and  _92
REMARK   34  A    between atoms: _92  and  _93
REMARK   35  A    between atoms: _92  and  _95
REMARK   36  A    between atoms: _95  and  _96
REMARK   37  A    between atoms: _96  and  _97
REMARK   38  A    between atoms: _102  and  _104
REMARK   39  A    between atoms: _104  and  _105
REMARK   40  A    between atoms: _104  and  _107
REMARK   41  A    between atoms: _107  and  _108
REMARK   42  A    between atoms: _113  and  _115
REMARK   43  A    between atoms: _115  and  _116
REMARK   44  A    between atoms: _115  and  _118
REMARK   45  A    between atoms: _118  and  _119
REMARK   46  A    between atoms: _119  and  _120
REMARK   47  A    between atoms: _123  and  _125
REMARK   48  A    between atoms: _125  and  _126
REMARK   49  A    between atoms: _125  and  _128
REMARK   50  A    between atoms: _128  and  _129
REMARK   51  A    between atoms: _135  and  _137
REMARK   52  A    between atoms: _137  and  _138
REMARK   53  A    between atoms: _141  and  _143
REMARK   54  A    between atoms: _143  and  _144
REMARK   55  A    between atoms: _143  and  _146
REMARK   56  A    between atoms: _146  and  _147
REMARK   57  A    between atoms: _147  and  _148
REMARK   58  A    between atoms: _150  and  _152
REMARK   59  A    between atoms: _152  and  _153
REMARK   60  A    between atoms: _152  and  _155
REMARK   61  A    between atoms: _155  and  _156
REMARK   62  A    between atoms: _158  and  _160
REMARK   63  A    between atoms: _160  and  _161
REMARK   64  A    between atoms: _160  and  _163
REMARK   65  A    between atoms: _163  and  _164
REMARK   66  A    between atoms: _167  and  _169
REMARK   67  A    between atoms: _169  and  _170
REMARK   68  A    between atoms: _169  and  _172
REMARK   69  A    between atoms: _172  and  _173
REMARK   70  A    between atoms: _173  and  _174
REMARK   71  A    between atoms: _174  and  _175
REMARK   72  A    between atoms: _175  and  _176
REMARK   73  A    between atoms: _180  and  _182
REMARK   74  A    between atoms: _182  and  _183
REMARK   75  A    between atoms: _182  and  _185
REMARK   76  A    between atoms: _188  and  _190
REMARK   77  A    between atoms: _190  and  _191
REMARK   78  A    between atoms: _190  and  _193
REMARK   79  A    between atoms: _193  and  _194
REMARK   80  A    between atoms: _196  and  _198
REMARK   81  A    between atoms: _198  and  _199
REMARK   82  A    between atoms: _198  and  _201
REMARK   83  A    between atoms: _204  and  _206
REMARK   84  A    between atoms: _206  and  _207
REMARK   85  A    between atoms: _206  and  _209
REMARK   86  A    between atoms: _209  and  _210
REMARK   87  A    between atoms: _210  and  _211
REMARK   88  A    between atoms: _214  and  _216
REMARK   89  A    between atoms: _216  and  _217
REMARK   90  A    between atoms: _216  and  _219
REMARK   91  A    between atoms: _219  and  _220
REMARK   92  A    between atoms: _223  and  _225
REMARK   93  A    between atoms: _225  and  _226
REMARK   94  A    between atoms: _229  and  _231
REMARK   95  A    between atoms: _231  and  _232
REMARK   96  A    between atoms: _231  and  _234
REMARK   97  A    between atoms: _234  and  _235
REMARK   98  A    between atoms: _246  and  _247
REMARK   99  A    between atoms: _252  and  _254
REMARK  100  A    between atoms: _254  and  _255
REMARK  101  A    between atoms: _258  and  _260
REMARK  102  A    between atoms: _260  and  _261
REMARK  103  A    between atoms: _260  and  _263
REMARK  104  A    between atoms: _263  and  _264
REMARK  105  A    between atoms: _269  and  _271
REMARK  106  A    between atoms: _271  and  _272
REMARK  107  A    between atoms: _271  and  _274
REMARK  108  A    between atoms: _274  and  _275
REMARK  109  A    between atoms: _280  and  _281
REMARK  110  A    between atoms: _283  and  _285
REMARK  111  A    between atoms: _285  and  _286
REMARK  112  A    between atoms: _289  and  _291
REMARK  113  A    between atoms: _291  and  _292
REMARK  114  A    between atoms: _291  and  _294
REMARK  115  A    between atoms: _294  and  _295
REMARK  116  A    between atoms: _295  and  _296
REMARK  117  A    between atoms: _301  and  _303
REMARK  118  A    between atoms: _303  and  _304
REMARK  119  A    between atoms: _303  and  _306
REMARK  120  A    between atoms: _306  and  _307
REMARK  121  A    between atoms: _307  and  _308
REMARK  122  A    between atoms: _310  and  _312
REMARK  123  A    between atoms: _312  and  _313
REMARK  124  A    between atoms: _315  and  _317
REMARK  125  A    between atoms: _317  and  _318
REMARK  126  A    between atoms: _321  and  _323
REMARK  127  A    between atoms: _323  and  _324
REMARK  128  A    between atoms: _323  and  _326
REMARK  129  A    between atoms: _326  and  _327
REMARK  130  A    between atoms: _337  and  _339
REMARK  131  A    between atoms: _339  and  _340
REMARK  132  A    between atoms: _339  and  _342
REMARK  133  A    between atoms: _342  and  _343
REMARK  134  A    between atoms: _343  and  _344
REMARK  135  A    between atoms: _347  and  _349
REMARK  136  A    between atoms: _349  and  _350
REMARK  137  A    between atoms: _352  and  _354
REMARK  138  A    between atoms: _354  and  _355
REMARK  139  A    between atoms: _354  and  _357
REMARK  140  A    between atoms: _360  and  _362
REMARK  141  A    between atoms: _362  and  _363
REMARK  142  A    between atoms: _362  and  _365
REMARK  143  A    between atoms: _365  and  _366
REMARK  144  A    between atoms: _366  and  _367
REMARK  145  A    between atoms: _369  and  _371
REMARK  146  A    between atoms: _371  and  _372
REMARK  147  A    between atoms: _374  and  _376
REMARK  148  A    between atoms: _376  and  _377
REMARK  149  A    between atoms: _379  and  _381
REMARK  150  A    between atoms: _381  and  _382
REMARK  151  A    between atoms: _381  and  _384
REMARK  152  A    between atoms: _387  and  _389
REMARK  153  A    between atoms: _389  and  _390
REMARK  154  A    between atoms: _389  and  _392
REMARK  155  A    between atoms: _392  and  _393
REMARK  156  A    between atoms: _396  and  _398
REMARK  157  A    between atoms: _398  and  _399
REMARK  158  A    between atoms: _398  and  _401
REMARK  159  A    between atoms: _401  and  _402
REMARK  160  A    between atoms: _407  and  _408
REMARK  161  A    between atoms: _410  and  _412
REMARK  162  A    between atoms: _412  and  _413
REMARK  163  A    between atoms: _412  and  _415
REMARK  164  A    between atoms: _415  and  _416
REMARK  165  A    between atoms: _422  and  _424
REMARK  166  A    between atoms: _424  and  _425
REMARK  167  A    between atoms: _424  and  _427
REMARK  168  A    between atoms: _427  and  _428
REMARK  169  A    between atoms: _428  and  _429
REMARK  170  A    between atoms: _434  and  _436
REMARK  171  A    between atoms: _436  and  _437
REMARK  172  A    between atoms: _436  and  _439
REMARK  173  A    between atoms: _439  and  _440
REMARK  174  A    between atoms: _445  and  _446
REMARK  175  A    between atoms: _448  and  _450
REMARK  176  A    between atoms: _450  and  _451
REMARK  177  A    between atoms: _454  and  _456
REMARK  178  A    between atoms: _456  and  _457
REMARK  179  A    between atoms: _456  and  _459
REMARK  180  A    between atoms: _459  and  _460
REMARK  181  A    between atoms: _466  and  _468
REMARK  182  A    between atoms: _468  and  _469
REMARK  183  A    between atoms: _468  and  _471
REMARK  184  A    between atoms: _471  and  _472
REMARK  185  A    between atoms: _474  and  _476
REMARK  186  A    between atoms: _476  and  _477
REMARK  187  A    between atoms: _476  and  _479
REMARK  188  A    between atoms: _479  and  _480
REMARK  189  A    between atoms: _483  and  _485
REMARK  190  A    between atoms: _485  and  _486
REMARK  191  A    between atoms: _485  and  _488
REMARK  192  A    between atoms: _488  and  _489
REMARK  193  A    between atoms: _493  and  _494
REMARK  194  A    between atoms: _499  and  _501
REMARK  195  A    between atoms: _501  and  _502
REMARK  196  A    between atoms: _505  and  _507
REMARK  197  A    between atoms: _507  and  _508
REMARK  198  A    between atoms: _507  and  _510
REMARK  199  A    between atoms: _510  and  _511
REMARK  200  A    between atoms: _514  and  _516
REMARK  201  A    between atoms: _516  and  _517
REMARK  202  A    between atoms: _516  and  _519
REMARK  203  A    between atoms: _519  and  _520
REMARK  204  A    between atoms: _530  and  _532
REMARK  205  A    between atoms: _532  and  _533
REMARK  206  A    between atoms: _532  and  _535
REMARK  207  A    between atoms: _535  and  _536
REMARK  208  A    between atoms: _536  and  _537
REMARK  209  A    between atoms: _539  and  _541
REMARK  210  A    between atoms: _541  and  _542
REMARK  211  A    between atoms: _541  and  _544
REMARK  212  A    between atoms: _544  and  _545
REMARK  213  A    between atoms: _548  and  _550
REMARK  214  A    between atoms: _550  and  _551
REMARK  215  A    between atoms: _550  and  _553
REMARK  216  A    between atoms: _553  and  _554
REMARK  217  A    between atoms: _557  and  _559
REMARK  218  A    between atoms: _559  and  _560
REMARK  219  A    between atoms: _563  and  _565
REMARK  220  A    between atoms: _565  and  _566
REMARK  221  A    between atoms: _568  and  _570
REMARK  222  A    between atoms: _570  and  _571
REMARK  223  A    between atoms: _570  and  _573
REMARK  224  A    between atoms: _573  and  _574
REMARK  225  A    between atoms: _579  and  _581
REMARK  226  A    between atoms: _581  and  _582
REMARK  227  A    between atoms: _581  and  _584
REMARK  228  A    between atoms: _584  and  _585
REMARK                            x       y       z     vdW  Elec       q    Type
REMARK                         _______ _______ _______ _____ _____    ______ ____
ROOT
ATOM      1  O   HOH     1     -24.604  19.260 -17.629  0.00  0.00    +0.000 OA
ENDROOT
TORSDOF 0
REMARK  Name = ../refined-set-2016/4c1u/4c1u_pocket.pdb
REMARK  228 active torsions:
REMARK  status: ('A' for Active; 'I' for Inactive)
REMARK    1  A    between atoms: _1  and  _3
REMARK    2  A    between atoms: _3  and  _4
REMARK    3  A    between atoms: _3  and  _6
REMARK    4  A    between atoms: _6  and  _7
REMARK    5  A    between atoms: _12  and  _14
REMARK    6  A    between atoms: _14  and  _15
REMARK    7  A    between atoms: _14  and  _17
REMARK    8  A    between atoms: _17  and  _18
REMARK    9  A    between atoms: _23  and  _25
REMARK   10  A    between atoms: _25  and  _26
REMARK   11  A    between atoms: _29  and  _31
REMARK   12  A    between atoms: _31  and  _32
REMARK   13  A    between atoms: _31  and  _34
REMARK   14  A    between atoms: _34  and  _35
REMARK   15  A    between atoms: _37  and  _39
REMARK   16  A    between atoms: _39  and  _40
REMARK   17  A    between atoms: _43  and  _45
REMARK   18  A    between atoms: _45  and  _46
REMARK   19  A    between atoms: _48  and  _50
REMARK   20  A    between atoms: _50  and  _51
REMARK   21  A    between atoms: _50  and  _53
REMARK   22  A    between atoms: _53  and  _54
REMARK   23  A    between atoms: _54  and  _55
REMARK   24  A    between atoms: _55  and  _56
REMARK   25  A    between atoms: _65  and  _67
REMARK   26  A    between atoms: _67  and  _68
REMARK   27  A    between atoms: _67  and  _70
REMARK   28  A    between atoms: _70  and  _71
REMARK   29  A    between atoms: _81  and  _83
REMARK   30  A    between atoms: _83  and  _84
REMARK   31  A    between atoms: _83  and  _86
REMARK   32  A    between atoms: _86  and  _87
REMARK   33  A    between atoms: _90  and  _92
REMARK   34  A    between atoms: _92  and  _93
REMARK   35  A    between atoms: _92  and  _95
REMARK   36  A    between atoms: _95  and  _96
REMARK   37  A    between atoms: _96  and  _97
REMARK   38  A    between atoms: _102  and  _104
REMARK   39  A    between atoms: _104  and  _105
REMARK   40  A    between atoms: _104  and  _107
REMARK   41  A    between atoms: _107  and  _108
REMARK   42  A    between atoms: _113  and  _115
REMARK   43  A    between atoms: _115  and  _116
REMARK   44  A    between atoms: _115  and  _118
REMARK   45  A    between atoms: _118  and  _119
REMARK   46  A    between atoms: _119  and  _120
REMARK   47  A    between atoms: _123  and  _125
REMARK   48  A    between atoms: _125  and  _126
REMARK   49  A    between atoms: _125  and  _128
REMARK   50  A    between atoms: _128  and  _129
REMARK   51  A    between atoms: _135  and  _137
REMARK   52  A    between atoms: _137  and  _138
REMARK   53  A    between atoms: _141  and  _143
REMARK   54  A    between atoms: _143  and  _144
REMARK   55  A    between atoms: _143  and  _146
REMARK   56  A    between atoms: _146  and  _147
REMARK   57  A    between atoms: _147  and  _148
REMARK   58  A    between atoms: _150  and  _152
REMARK   59  A    between atoms: _152  and  _153
REMARK   60  A    between atoms: _152  and  _155
REMARK   61  A    between atoms: _155  and  _156
REMARK   62  A    between atoms: _158  and  _160
REMARK   63  A    between atoms: _160  and  _161
REMARK   64  A    between atoms: _160  and  _163
REMARK   65  A    between atoms: _163  and  _164
REMARK   66  A    between atoms: _167  and  _169
REMARK   67  A    between atoms: _169  and  _170
REMARK   68  A    between atoms: _169  and  _172
REMARK   69  A    between atoms: _172  and  _173
REMARK   70  A    between atoms: _173  and  _174
REMARK   71  A    between atoms: _174  and  _175
REMARK   72  A    between atoms: _175  and  _176
REMARK   73  A    between atoms: _180  and  _182
REMARK   74  A    between atoms: _182  and  _183
REMARK   75  A    between atoms: _182  and  _185
REMARK   76  A    between atoms: _188  and  _190
REMARK   77  A    between atoms: _190  and  _191
REMARK   78  A    between atoms: _190  and  _193
REMARK   79  A    between atoms: _193  and  _194
REMARK   80  A    between atoms: _196  and  _198
REMARK   81  A    between atoms: _198  and  _199
REMARK   82  A    between atoms: _198  and  _201
REMARK   83  A    between atoms: _204  and  _206
REMARK   84  A    between atoms: _206  and  _207
REMARK   85  A    between atoms: _206  and  _209
REMARK   86  A    between atoms: _209  and  _210
REMARK   87  A    between atoms: _210  and  _211
REMARK   88  A    between atoms: _214  and  _216
REMARK   89  A    between atoms: _216  and  _217
REMARK   90  A    between atoms: _216  and  _219
REMARK   91  A    between atoms: _219  and  _220
REMARK   92  A    between atoms: _223  and  _225
REMARK   93  A    between atoms: _225  and  _226
REMARK   94  A    between atoms: _229  and  _231
REMARK   95  A    between atoms: _231  and  _232
REMARK   96  A    between atoms: _231  and  _234
REMARK   97  A    between atoms: _234  and  _235
REMARK   98  A    between atoms: _246  and  _247
REMARK   99  A    between atoms: _252  and  _254
REMARK  100  A    between atoms: _254  and  _255
REMARK  101  A    between atoms: _258  and  _260
REMARK  102  A    between atoms: _260  and  _261
REMARK  103  A    between atoms: _260  and  _263
REMARK  104  A    between atoms: _263  and  _264
REMARK  105  A    between atoms: _269  and  _271
REMARK  106  A    between atoms: _271  and  _272
REMARK  107  A    between atoms: _271  and  _274
REMARK  108  A    between atoms: _274  and  _275
REMARK  109  A    between atoms: _280  and  _281
REMARK  110  A    between atoms: _283  and  _285
REMARK  111  A    between atoms: _285  and  _286
REMARK  112  A    between atoms: _289  and  _291
REMARK  113  A    between atoms: _291  and  _292
REMARK  114  A    between atoms: _291  and  _294
REMARK  115  A    between atoms: _294  and  _295
REMARK  116  A    between atoms: _295  and  _296
REMARK  117  A    between atoms: _301  and  _303
REMARK  118  A    between atoms: _303  and  _304
REMARK  119  A    between atoms: _303  and  _306
REMARK  120  A    between atoms: _306  and  _307
REMARK  121  A    between atoms: _307  and  _308
REMARK  122  A    between atoms: _310  and  _312
REMARK  123  A    between atoms: _312  and  _313
REMARK  124  A    between atoms: _315  and  _317
REMARK  125  A    between atoms: _317  and  _318
REMARK  126  A    between atoms: _321  and  _323
REMARK  127  A    between atoms: _323  and  _324
REMARK  128  A    between atoms: _323  and  _326
REMARK  129  A    between atoms: _326  and  _327
REMARK  130  A    between atoms: _337  and  _339
REMARK  131  A    between atoms: _339  and  _340
REMARK  132  A    between atoms: _339  and  _342
REMARK  133  A    between atoms: _342  and  _343
REMARK  134  A    between atoms: _343  and  _344
REMARK  135  A    between atoms: _347  and  _349
REMARK  136  A    between atoms: _349  and  _350
REMARK  137  A    between atoms: _352  and  _354
REMARK  138  A    between atoms: _354  and  _355
REMARK  139  A    between atoms: _354  and  _357
REMARK  140  A    between atoms: _360  and  _362
REMARK  141  A    between atoms: _362  and  _363
REMARK  142  A    between atoms: _362  and  _365
REMARK  143  A    between atoms: _365  and  _366
REMARK  144  A    between atoms: _366  and  _367
REMARK  145  A    between atoms: _369  and  _371
REMARK  146  A    between atoms: _371  and  _372
REMARK  147  A    between atoms: _374  and  _376
REMARK  148  A    between atoms: _376  and  _377
REMARK  149  A    between atoms: _379  and  _381
REMARK  150  A    between atoms: _381  and  _382
REMARK  151  A    between atoms: _381  and  _384
REMARK  152  A    between atoms: _387  and  _389
REMARK  153  A    between atoms: _389  and  _390
REMARK  154  A    between atoms: _389  and  _392
REMARK  155  A    between atoms: _392  and  _393
REMARK  156  A    between atoms: _396  and  _398
REMARK  157  A    between atoms: _398  and  _399
REMARK  158  A    between atoms: _398  and  _401
REMARK  159  A    between atoms: _401  and  _402
REMARK  160  A    between atoms: _407  and  _408
REMARK  161  A    between atoms: _410  and  _412
REMARK  162  A    between atoms: _412  and  _413
REMARK  163  A    between atoms: _412  and  _415
REMARK  164  A    between atoms: _415  and  _416
REMARK  165  A    between atoms: _422  and  _424
REMARK  166  A    between atoms: _424  and  _425
REMARK  167  A    between atoms: _424  and  _427
REMARK  168  A    between atoms: _427  and  _428
REMARK  169  A    between atoms: _428  and  _429
REMARK  170  A    between atoms: _434  and  _436
REMARK  171  A    between atoms: _436  and  _437
REMARK  172  A    between atoms: _436  and  _439
REMARK  173  A    between atoms: _439  and  _440
REMARK  174  A    between atoms: _445  and  _446
REMARK  175  A    between atoms: _448  and  _450
REMARK  176  A    between atoms: _450  and  _451
REMARK  177  A    between atoms: _454  and  _456
REMARK  178  A    between atoms: _456  and  _457
REMARK  179  A    between atoms: _456  and  _459
REMARK  180  A    between atoms: _459  and  _460
REMARK  181  A    between atoms: _466  and  _468
REMARK  182  A    between atoms: _468  and  _469
REMARK  183  A    between atoms: _468  and  _471
REMARK  184  A    between atoms: _471  and  _472
REMARK  185  A    between atoms: _474  and  _476
REMARK  186  A    between atoms: _476  and  _477
REMARK  187  A    between atoms: _476  and  _479
REMARK  188  A    between atoms: _479  and  _480
REMARK  189  A    between atoms: _483  and  _485
REMARK  190  A    between atoms: _485  and  _486
REMARK  191  A    between atoms: _485  and  _488
REMARK  192  A    between atoms: _488  and  _489
REMARK  193  A    between atoms: _493  and  _494
REMARK  194  A    between atoms: _499  and  _501
REMARK  195  A    between atoms: _501  and  _502
REMARK  196  A    between atoms: _505  and  _507
REMARK  197  A    between atoms: _507  and  _508
REMARK  198  A    between atoms: _507  and  _510
REMARK  199  A    between atoms: _510  and  _511
REMARK  200  A    between atoms: _514  and  _516
REMARK  201  A    between atoms: _516  and  _517
REMARK  202  A    between atoms: _516  and  _519
REMARK  203  A    between atoms: _519  and  _520
REMARK  204  A    between atoms: _530  and  _532
REMARK  205  A    between atoms: _532  and  _533
REMARK  206  A    between atoms: _532  and  _535
REMARK  207  A    between atoms: _535  and  _536
REMARK  208  A    between atoms: _536  and  _537
REMARK  209  A    between atoms: _539  and  _541
REMARK  210  A    between atoms: _541  and  _542
REMARK  211  A    between atoms: _541  and  _544
REMARK  212  A    between atoms: _544  and  _545
REMARK  213  A    between atoms: _548  and  _550
REMARK  214  A    between atoms: _550  and  _551
REMARK  215  A    between atoms: _550  and  _553
REMARK  216  A    between atoms: _553  and  _554
REMARK  217  A    between atoms: _557  and  _559
REMARK  218  A    between atoms: _559  and  _560
REMARK  219  A    between atoms: _563  and  _565
REMARK  220  A    between atoms: _565  and  _566
REMARK  221  A    between atoms: _568  and  _570
REMARK  222  A    between atoms: _570  and  _571
REMARK  223  A    between atoms: _570  and  _573
REMARK  224  A    between atoms: _573  and  _574
REMARK  225  A    between atoms: _579  and  _581
REMARK  226  A    between atoms: _581  and  _582
REMARK  227  A    between atoms: _581  and  _584
REMARK  228  A    between atoms: _584  and  _585
REMARK                            x       y       z     vdW  Elec       q    Type
REMARK                         _______ _______ _______ _____ _____    ______ ____
ROOT
ATOM      1  O   HOH     1     -14.144  19.945 -19.365  0.00  0.00    +0.000 OA
ENDROOT
TORSDOF 0
REMARK  Name = ../refined-set-2016/4c1u/4c1u_pocket.pdb
REMARK  228 active torsions:
REMARK  status: ('A' for Active; 'I' for Inactive)
REMARK    1  A    between atoms: _1  and  _3
REMARK    2  A    between atoms: _3  and  _4
REMARK    3  A    between atoms: _3  and  _6
REMARK    4  A    between atoms: _6  and  _7
REMARK    5  A    between atoms: _12  and  _14
REMARK    6  A    between atoms: _14  and  _15
REMARK    7  A    between atoms: _14  and  _17
REMARK    8  A    between atoms: _17  and  _18
REMARK    9  A    between atoms: _23  and  _25
REMARK   10  A    between atoms: _25  and  _26
REMARK   11  A    between atoms: _29  and  _31
REMARK   12  A    between atoms: _31  and  _32
REMARK   13  A    between atoms: _31  and  _34
REMARK   14  A    between atoms: _34  and  _35
REMARK   15  A    between atoms: _37  and  _39
REMARK   16  A    between atoms: _39  and  _40
REMARK   17  A    between atoms: _43  and  _45
REMARK   18  A    between atoms: _45  and  _46
REMARK   19  A    between atoms: _48  and  _50
REMARK   20  A    between atoms: _50  and  _51
REMARK   21  A    between atoms: _50  and  _53
REMARK   22  A    between atoms: _53  and  _54
REMARK   23  A    between atoms: _54  and  _55
REMARK   24  A    between atoms: _55  and  _56
REMARK   25  A    between atoms: _65  and  _67
REMARK   26  A    between atoms: _67  and  _68
REMARK   27  A    between atoms: _67  and  _70
REMARK   28  A    between atoms: _70  and  _71
REMARK   29  A    between atoms: _81  and  _83
REMARK   30  A    between atoms: _83  and  _84
REMARK   31  A    between atoms: _83  and  _86
REMARK   32  A    between atoms: _86  and  _87
REMARK   33  A    between atoms: _90  and  _92
REMARK   34  A    between atoms: _92  and  _93
REMARK   35  A    between atoms: _92  and  _95
REMARK   36  A    between atoms: _95  and  _96
REMARK   37  A    between atoms: _96  and  _97
REMARK   38  A    between atoms: _102  and  _104
REMARK   39  A    between atoms: _104  and  _105
REMARK   40  A    between atoms: _104  and  _107
REMARK   41  A    between atoms: _107  and  _108
REMARK   42  A    between atoms: _113  and  _115
REMARK   43  A    between atoms: _115  and  _116
REMARK   44  A    between atoms: _115  and  _118
REMARK   45  A    between atoms: _118  and  _119
REMARK   46  A    between atoms: _119  and  _120
REMARK   47  A    between atoms: _123  and  _125
REMARK   48  A    between atoms: _125  and  _126
REMARK   49  A    between atoms: _125  and  _128
REMARK   50  A    between atoms: _128  and  _129
REMARK   51  A    between atoms: _135  and  _137
REMARK   52  A    between atoms: _137  and  _138
REMARK   53  A    between atoms: _141  and  _143
REMARK   54  A    between atoms: _143  and  _144
REMARK   55  A    between atoms: _143  and  _146
REMARK   56  A    between atoms: _146  and  _147
REMARK   57  A    between atoms: _147  and  _148
REMARK   58  A    between atoms: _150  and  _152
REMARK   59  A    between atoms: _152  and  _153
REMARK   60  A    between atoms: _152  and  _155
REMARK   61  A    between atoms: _155  and  _156
REMARK   62  A    between atoms: _158  and  _160
REMARK   63  A    between atoms: _160  and  _161
REMARK   64  A    between atoms: _160  and  _163
REMARK   65  A    between atoms: _163  and  _164
REMARK   66  A    between atoms: _167  and  _169
REMARK   67  A    between atoms: _169  and  _170
REMARK   68  A    between atoms: _169  and  _172
REMARK   69  A    between atoms: _172  and  _173
REMARK   70  A    between atoms: _173  and  _174
REMARK   71  A    between atoms: _174  and  _175
REMARK   72  A    between atoms: _175  and  _176
REMARK   73  A    between atoms: _180  and  _182
REMARK   74  A    between atoms: _182  and  _183
REMARK   75  A    between atoms: _182  and  _185
REMARK   76  A    between atoms: _188  and  _190
REMARK   77  A    between atoms: _190  and  _191
REMARK   78  A    between atoms: _190  and  _193
REMARK   79  A    between atoms: _193  and  _194
REMARK   80  A    between atoms: _196  and  _198
REMARK   81  A    between atoms: _198  and  _199
REMARK   82  A    between atoms: _198  and  _201
REMARK   83  A    between atoms: _204  and  _206
REMARK   84  A    between atoms: _206  and  _207
REMARK   85  A    between atoms: _206  and  _209
REMARK   86  A    between atoms: _209  and  _210
REMARK   87  A    between atoms: _210  and  _211
REMARK   88  A    between atoms: _214  and  _216
REMARK   89  A    between atoms: _216  and  _217
REMARK   90  A    between atoms: _216  and  _219
REMARK   91  A    between atoms: _219  and  _220
REMARK   92  A    between atoms: _223  and  _225
REMARK   93  A    between atoms: _225  and  _226
REMARK   94  A    between atoms: _229  and  _231
REMARK   95  A    between atoms: _231  and  _232
REMARK   96  A    between atoms: _231  and  _234
REMARK   97  A    between atoms: _234  and  _235
REMARK   98  A    between atoms: _246  and  _247
REMARK   99  A    between atoms: _252  and  _254
REMARK  100  A    between atoms: _254  and  _255
REMARK  101  A    between atoms: _258  and  _260
REMARK  102  A    between atoms: _260  and  _261
REMARK  103  A    between atoms: _260  and  _263
REMARK  104  A    between atoms: _263  and  _264
REMARK  105  A    between atoms: _269  and  _271
REMARK  106  A    between atoms: _271  and  _272
REMARK  107  A    between atoms: _271  and  _274
REMARK  108  A    between atoms: _274  and  _275
REMARK  109  A    between atoms: _280  and  _281
REMARK  110  A    between atoms: _283  and  _285
REMARK  111  A    between atoms: _285  and  _286
REMARK  112  A    between atoms: _289  and  _291
REMARK  113  A    between atoms: _291  and  _292
REMARK  114  A    between atoms: _291  and  _294
REMARK  115  A    between atoms: _294  and  _295
REMARK  116  A    between atoms: _295  and  _296
REMARK  117  A    between atoms: _301  and  _303
REMARK  118  A    between atoms: _303  and  _304
REMARK  119  A    between atoms: _303  and  _306
REMARK  120  A    between atoms: _306  and  _307
REMARK  121  A    between atoms: _307  and  _308
REMARK  122  A    between atoms: _310  and  _312
REMARK  123  A    between atoms: _312  and  _313
REMARK  124  A    between atoms: _315  and  _317
REMARK  125  A    between atoms: _317  and  _318
REMARK  126  A    between atoms: _321  and  _323
REMARK  127  A    between atoms: _323  and  _324
REMARK  128  A    between atoms: _323  and  _326
REMARK  129  A    between atoms: _326  and  _327
REMARK  130  A    between atoms: _337  and  _339
REMARK  131  A    between atoms: _339  and  _340
REMARK  132  A    between atoms: _339  and  _342
REMARK  133  A    between atoms: _342  and  _343
REMARK  134  A    between atoms: _343  and  _344
REMARK  135  A    between atoms: _347  and  _349
REMARK  136  A    between atoms: _349  and  _350
REMARK  137  A    between atoms: _352  and  _354
REMARK  138  A    between atoms: _354  and  _355
REMARK  139  A    between atoms: _354  and  _357
REMARK  140  A    between atoms: _360  and  _362
REMARK  141  A    between atoms: _362  and  _363
REMARK  142  A    between atoms: _362  and  _365
REMARK  143  A    between atoms: _365  and  _366
REMARK  144  A    between atoms: _366  and  _367
REMARK  145  A    between atoms: _369  and  _371
REMARK  146  A    between atoms: _371  and  _372
REMARK  147  A    between atoms: _374  and  _376
REMARK  148  A    between atoms: _376  and  _377
REMARK  149  A    between atoms: _379  and  _381
REMARK  150  A    between atoms: _381  and  _382
REMARK  151  A    between atoms: _381  and  _384
REMARK  152  A    between atoms: _387  and  _389
REMARK  153  A    between atoms: _389  and  _390
REMARK  154  A    between atoms: _389  and  _392
REMARK  155  A    between atoms: _392  and  _393
REMARK  156  A    between atoms: _396  and  _398
REMARK  157  A    between atoms: _398  and  _399
REMARK  158  A    between atoms: _398  and  _401
REMARK  159  A    between atoms: _401  and  _402
REMARK  160  A    between atoms: _407  and  _408
REMARK  161  A    between atoms: _410  and  _412
REMARK  162  A    between atoms: _412  and  _413
REMARK  163  A    between atoms: _412  and  _415
REMARK  164  A    between atoms: _415  and  _416
REMARK  165  A    between atoms: _422  and  _424
REMARK  166  A    between atoms: _424  and  _425
REMARK  167  A    between atoms: _424  and  _427
REMARK  168  A    between atoms: _427  and  _428
REMARK  169  A    between atoms: _428  and  _429
REMARK  170  A    between atoms: _434  and  _436
REMARK  171  A    between atoms: _436  and  _437
REMARK  172  A    between atoms: _436  and  _439
REMARK  173  A    between atoms: _439  and  _440
REMARK  174  A    between atoms: _445  and  _446
REMARK  175  A    between atoms: _448  and  _450
REMARK  176  A    between atoms: _450  and  _451
REMARK  177  A    between atoms: _454  and  _456
REMARK  178  A    between atoms: _456  and  _457
REMARK  179  A    between atoms: _456  and  _459
REMARK  180  A    between atoms: _459  and  _460
REMARK  181  A    between atoms: _466  and  _468
REMARK  182  A    between atoms: _468  and  _469
REMARK  183  A    between atoms: _468  and  _471
REMARK  184  A    between atoms: _471  and  _472
REMARK  185  A    between atoms: _474  and  _476
REMARK  186  A    between atoms: _476  and  _477
REMARK  187  A    between atoms: _476  and  _479
REMARK  188  A    between atoms: _479  and  _480
REMARK  189  A    between atoms: _483  and  _485
REMARK  190  A    between atoms: _485  and  _486
REMARK  191  A    between atoms: _485  and  _488
REMARK  192  A    between atoms: _488  and  _489
REMARK  193  A    between atoms: _493  and  _494
REMARK  194  A    between atoms: _499  and  _501
REMARK  195  A    between atoms: _501  and  _502
REMARK  196  A    between atoms: _505  and  _507
REMARK  197  A    between atoms: _507  and  _508
REMARK  198  A    between atoms: _507  and  _510
REMARK  199  A    between atoms: _510  and  _511
REMARK  200  A    between atoms: _514  and  _516
REMARK  201  A    between atoms: _516  and  _517
REMARK  202  A    between atoms: _516  and  _519
REMARK  203  A    between atoms: _519  and  _520
REMARK  204  A    between atoms: _530  and  _532
REMARK  205  A    between atoms: _532  and  _533
REMARK  206  A    between atoms: _532  and  _535
REMARK  207  A    between atoms: _535  and  _536
REMARK  208  A    between atoms: _536  and  _537
REMARK  209  A    between atoms: _539  and  _541
REMARK  210  A    between atoms: _541  and  _542
REMARK  211  A    between atoms: _541  and  _544
REMARK  212  A    between atoms: _544  and  _545
REMARK  213  A    between atoms: _548  and  _550
REMARK  214  A    between atoms: _550  and  _551
REMARK  215  A    between atoms: _550  and  _553
REMARK  216  A    between atoms: _553  and  _554
REMARK  217  A    between atoms: _557  and  _559
REMARK  218  A    between atoms: _559  and  _560
REMARK  219  A    between atoms: _563  and  _565
REMARK  220  A    between atoms: _565  and  _566
REMARK  221  A    between atoms: _568  and  _570
REMARK  222  A    between atoms: _570  and  _571
REMARK  223  A    between atoms: _570  and  _573
REMARK  224  A    between atoms: _573  and  _574
REMARK  225  A    between atoms: _579  and  _581
REMARK  226  A    between atoms: _581  and  _582
REMARK  227  A    between atoms: _581  and  _584
REMARK  228  A    between atoms: _584  and  _585
REMARK                            x       y       z     vdW  Elec       q    Type
REMARK                         _______ _______ _______ _____ _____    ______ ____
ROOT
ATOM      1  O   HOH     1     -23.427  21.895  -7.506  0.00  0.00    +0.000 OA
ENDROOT
TORSDOF 0
REMARK  Name = ../refined-set-2016/4c1u/4c1u_pocket.pdb
REMARK  228 active torsions:
REMARK  status: ('A' for Active; 'I' for Inactive)
REMARK    1  A    between atoms: _1  and  _3
REMARK    2  A    between atoms: _3  and  _4
REMARK    3  A    between atoms: _3  and  _6
REMARK    4  A    between atoms: _6  and  _7
REMARK    5  A    between atoms: _12  and  _14
REMARK    6  A    between atoms: _14  and  _15
REMARK    7  A    between atoms: _14  and  _17
REMARK    8  A    between atoms: _17  and  _18
REMARK    9  A    between atoms: _23  and  _25
REMARK   10  A    between atoms: _25  and  _26
REMARK   11  A    between atoms: _29  and  _31
REMARK   12  A    between atoms: _31  and  _32
REMARK   13  A    between atoms: _31  and  _34
REMARK   14  A    between atoms: _34  and  _35
REMARK   15  A    between atoms: _37  and  _39
REMARK   16  A    between atoms: _39  and  _40
REMARK   17  A    between atoms: _43  and  _45
REMARK   18  A    between atoms: _45  and  _46
REMARK   19  A    between atoms: _48  and  _50
REMARK   20  A    between atoms: _50  and  _51
REMARK   21  A    between atoms: _50  and  _53
REMARK   22  A    between atoms: _53  and  _54
REMARK   23  A    between atoms: _54  and  _55
REMARK   24  A    between atoms: _55  and  _56
REMARK   25  A    between atoms: _65  and  _67
REMARK   26  A    between atoms: _67  and  _68
REMARK   27  A    between atoms: _67  and  _70
REMARK   28  A    between atoms: _70  and  _71
REMARK   29  A    between atoms: _81  and  _83
REMARK   30  A    between atoms: _83  and  _84
REMARK   31  A    between atoms: _83  and  _86
REMARK   32  A    between atoms: _86  and  _87
REMARK   33  A    between atoms: _90  and  _92
REMARK   34  A    between atoms: _92  and  _93
REMARK   35  A    between atoms: _92  and  _95
REMARK   36  A    between atoms: _95  and  _96
REMARK   37  A    between atoms: _96  and  _97
REMARK   38  A    between atoms: _102  and  _104
REMARK   39  A    between atoms: _104  and  _105
REMARK   40  A    between atoms: _104  and  _107
REMARK   41  A    between atoms: _107  and  _108
REMARK   42  A    between atoms: _113  and  _115
REMARK   43  A    between atoms: _115  and  _116
REMARK   44  A    between atoms: _115  and  _118
REMARK   45  A    between atoms: _118  and  _119
REMARK   46  A    between atoms: _119  and  _120
REMARK   47  A    between atoms: _123  and  _125
REMARK   48  A    between atoms: _125  and  _126
REMARK   49  A    between atoms: _125  and  _128
REMARK   50  A    between atoms: _128  and  _129
REMARK   51  A    between atoms: _135  and  _137
REMARK   52  A    between atoms: _137  and  _138
REMARK   53  A    between atoms: _141  and  _143
REMARK   54  A    between atoms: _143  and  _144
REMARK   55  A    between atoms: _143  and  _146
REMARK   56  A    between atoms: _146  and  _147
REMARK   57  A    between atoms: _147  and  _148
REMARK   58  A    between atoms: _150  and  _152
REMARK   59  A    between atoms: _152  and  _153
REMARK   60  A    between atoms: _152  and  _155
REMARK   61  A    between atoms: _155  and  _156
REMARK   62  A    between atoms: _158  and  _160
REMARK   63  A    between atoms: _160  and  _161
REMARK   64  A    between atoms: _160  and  _163
REMARK   65  A    between atoms: _163  and  _164
REMARK   66  A    between atoms: _167  and  _169
REMARK   67  A    between atoms: _169  and  _170
REMARK   68  A    between atoms: _169  and  _172
REMARK   69  A    between atoms: _172  and  _173
REMARK   70  A    between atoms: _173  and  _174
REMARK   71  A    between atoms: _174  and  _175
REMARK   72  A    between atoms: _175  and  _176
REMARK   73  A    between atoms: _180  and  _182
REMARK   74  A    between atoms: _182  and  _183
REMARK   75  A    between atoms: _182  and  _185
REMARK   76  A    between atoms: _188  and  _190
REMARK   77  A    between atoms: _190  and  _191
REMARK   78  A    between atoms: _190  and  _193
REMARK   79  A    between atoms: _193  and  _194
REMARK   80  A    between atoms: _196  and  _198
REMARK   81  A    between atoms: _198  and  _199
REMARK   82  A    between atoms: _198  and  _201
REMARK   83  A    between atoms: _204  and  _206
REMARK   84  A    between atoms: _206  and  _207
REMARK   85  A    between atoms: _206  and  _209
REMARK   86  A    between atoms: _209  and  _210
REMARK   87  A    between atoms: _210  and  _211
REMARK   88  A    between atoms: _214  and  _216
REMARK   89  A    between atoms: _216  and  _217
REMARK   90  A    between atoms: _216  and  _219
REMARK   91  A    between atoms: _219  and  _220
REMARK   92  A    between atoms: _223  and  _225
REMARK   93  A    between atoms: _225  and  _226
REMARK   94  A    between atoms: _229  and  _231
REMARK   95  A    between atoms: _231  and  _232
REMARK   96  A    between atoms: _231  and  _234
REMARK   97  A    between atoms: _234  and  _235
REMARK   98  A    between atoms: _246  and  _247
REMARK   99  A    between atoms: _252  and  _254
REMARK  100  A    between atoms: _254  and  _255
REMARK  101  A    between atoms: _258  and  _260
REMARK  102  A    between atoms: _260  and  _261
REMARK  103  A    between atoms: _260  and  _263
REMARK  104  A    between atoms: _263  and  _264
REMARK  105  A    between atoms: _269  and  _271
REMARK  106  A    between atoms: _271  and  _272
REMARK  107  A    between atoms: _271  and  _274
REMARK  108  A    between atoms: _274  and  _275
REMARK  109  A    between atoms: _280  and  _281
REMARK  110  A    between atoms: _283  and  _285
REMARK  111  A    between atoms: _285  and  _286
REMARK  112  A    between atoms: _289  and  _291
REMARK  113  A    between atoms: _291  and  _292
REMARK  114  A    between atoms: _291  and  _294
REMARK  115  A    between atoms: _294  and  _295
REMARK  116  A    between atoms: _295  and  _296
REMARK  117  A    between atoms: _301  and  _303
REMARK  118  A    between atoms: _303  and  _304
REMARK  119  A    between atoms: _303  and  _306
REMARK  120  A    between atoms: _306  and  _307
REMARK  121  A    between atoms: _307  and  _308
REMARK  122  A    between atoms: _310  and  _312
REMARK  123  A    between atoms: _312  and  _313
REMARK  124  A    between atoms: _315  and  _317
REMARK  125  A    between atoms: _317  and  _318
REMARK  126  A    between atoms: _321  and  _323
REMARK  127  A    between atoms: _323  and  _324
REMARK  128  A    between atoms: _323  and  _326
REMARK  129  A    between atoms: _326  and  _327
REMARK  130  A    between atoms: _337  and  _339
REMARK  131  A    between atoms: _339  and  _340
REMARK  132  A    between atoms: _339  and  _342
REMARK  133  A    between atoms: _342  and  _343
REMARK  134  A    between atoms: _343  and  _344
REMARK  135  A    between atoms: _347  and  _349
REMARK  136  A    between atoms: _349  and  _350
REMARK  137  A    between atoms: _352  and  _354
REMARK  138  A    between atoms: _354  and  _355
REMARK  139  A    between atoms: _354  and  _357
REMARK  140  A    between atoms: _360  and  _362
REMARK  141  A    between atoms: _362  and  _363
REMARK  142  A    between atoms: _362  and  _365
REMARK  143  A    between atoms: _365  and  _366
REMARK  144  A    between atoms: _366  and  _367
REMARK  145  A    between atoms: _369  and  _371
REMARK  146  A    between atoms: _371  and  _372
REMARK  147  A    between atoms: _374  and  _376
REMARK  148  A    between atoms: _376  and  _377
REMARK  149  A    between atoms: _379  and  _381
REMARK  150  A    between atoms: _381  and  _382
REMARK  151  A    between atoms: _381  and  _384
REMARK  152  A    between atoms: _387  and  _389
REMARK  153  A    between atoms: _389  and  _390
REMARK  154  A    between atoms: _389  and  _392
REMARK  155  A    between atoms: _392  and  _393
REMARK  156  A    between atoms: _396  and  _398
REMARK  157  A    between atoms: _398  and  _399
REMARK  158  A    between atoms: _398  and  _401
REMARK  159  A    between atoms: _401  and  _402
REMARK  160  A    between atoms: _407  and  _408
REMARK  161  A    between atoms: _410  and  _412
REMARK  162  A    between atoms: _412  and  _413
REMARK  163  A    between atoms: _412  and  _415
REMARK  164  A    between atoms: _415  and  _416
REMARK  165  A    between atoms: _422  and  _424
REMARK  166  A    between atoms: _424  and  _425
REMARK  167  A    between atoms: _424  and  _427
REMARK  168  A    between atoms: _427  and  _428
REMARK  169  A    between atoms: _428  and  _429
REMARK  170  A    between atoms: _434  and  _436
REMARK  171  A    between atoms: _436  and  _437
REMARK  172  A    between atoms: _436  and  _439
REMARK  173  A    between atoms: _439  and  _440
REMARK  174  A    between atoms: _445  and  _446
REMARK  175  A    between atoms: _448  and  _450
REMARK  176  A    between atoms: _450  and  _451
REMARK  177  A    between atoms: _454  and  _456
REMARK  178  A    between atoms: _456  and  _457
REMARK  179  A    between atoms: _456  and  _459
REMARK  180  A    between atoms: _459  and  _460
REMARK  181  A    between atoms: _466  and  _468
REMARK  182  A    between atoms: _468  and  _469
REMARK  183  A    between atoms: _468  and  _471
REMARK  184  A    between atoms: _471  and  _472
REMARK  185  A    between atoms: _474  and  _476
REMARK  186  A    between atoms: _476  and  _477
REMARK  187  A    between atoms: _476  and  _479
REMARK  188  A    between atoms: _479  and  _480
REMARK  189  A    between atoms: _483  and  _485
REMARK  190  A    between atoms: _485  and  _486
REMARK  191  A    between atoms: _485  and  _488
REMARK  192  A    between atoms: _488  and  _489
REMARK  193  A    between atoms: _493  and  _494
REMARK  194  A    between atoms: _499  and  _501
REMARK  195  A    between atoms: _501  and  _502
REMARK  196  A    between atoms: _505  and  _507
REMARK  197  A    between atoms: _507  and  _508
REMARK  198  A    between atoms: _507  and  _510
REMARK  199  A    between atoms: _510  and  _511
REMARK  200  A    between atoms: _514  and  _516
REMARK  201  A    between atoms: _516  and  _517
REMARK  202  A    between atoms: _516  and  _519
REMARK  203  A    between atoms: _519  and  _520
REMARK  204  A    between atoms: _530  and  _532
REMARK  205  A    between atoms: _532  and  _533
REMARK  206  A    between atoms: _532  and  _535
REMARK  207  A    between atoms: _535  and  _536
REMARK  208  A    between atoms: _536  and  _537
REMARK  209  A    between atoms: _539  and  _541
REMARK  210  A    between atoms: _541  and  _542
REMARK  211  A    between atoms: _541  and  _544
REMARK  212  A    between atoms: _544  and  _545
REMARK  213  A    between atoms: _548  and  _550
REMARK  214  A    between atoms: _550  and  _551
REMARK  215  A    between atoms: _550  and  _553
REMARK  216  A    between atoms: _553  and  _554
REMARK  217  A    between atoms: _557  and  _559
REMARK  218  A    between atoms: _559  and  _560
REMARK  219  A    between atoms: _563  and  _565
REMARK  220  A    between atoms: _565  and  _566
REMARK  221  A    between atoms: _568  and  _570
REMARK  222  A    between atoms: _570  and  _571
REMARK  223  A    between atoms: _570  and  _573
REMARK  224  A    between atoms: _573  and  _574
REMARK  225  A    between atoms: _579  and  _581
REMARK  226  A    between atoms: _581  and  _582
REMARK  227  A    between atoms: _581  and  _584
REMARK  228  A    between atoms: _584  and  _585
REMARK                            x       y       z     vdW  Elec       q    Type
REMARK                         _______ _______ _______ _____ _____    ______ ____
ROOT
ATOM      1  O   HOH     1     -14.837  30.071 -15.387  0.00  0.00    +0.000 OA
ENDROOT
TORSDOF 0
REMARK  Name = ../refined-set-2016/4c1u/4c1u_pocket.pdb
REMARK  228 active torsions:
REMARK  status: ('A' for Active; 'I' for Inactive)
REMARK    1  A    between atoms: _1  and  _3
REMARK    2  A    between atoms: _3  and  _4
REMARK    3  A    between atoms: _3  and  _6
REMARK    4  A    between atoms: _6  and  _7
REMARK    5  A    between atoms: _12  and  _14
REMARK    6  A    between atoms: _14  and  _15
REMARK    7  A    between atoms: _14  and  _17
REMARK    8  A    between atoms: _17  and  _18
REMARK    9  A    between atoms: _23  and  _25
REMARK   10  A    between atoms: _25  and  _26
REMARK   11  A    between atoms: _29  and  _31
REMARK   12  A    between atoms: _31  and  _32
REMARK   13  A    between atoms: _31  and  _34
REMARK   14  A    between atoms: _34  and  _35
REMARK   15  A    between atoms: _37  and  _39
REMARK   16  A    between atoms: _39  and  _40
REMARK   17  A    between atoms: _43  and  _45
REMARK   18  A    between atoms: _45  and  _46
REMARK   19  A    between atoms: _48  and  _50
REMARK   20  A    between atoms: _50  and  _51
REMARK   21  A    between atoms: _50  and  _53
REMARK   22  A    between atoms: _53  and  _54
REMARK   23  A    between atoms: _54  and  _55
REMARK   24  A    between atoms: _55  and  _56
REMARK   25  A    between atoms: _65  and  _67
REMARK   26  A    between atoms: _67  and  _68
REMARK   27  A    between atoms: _67  and  _70
REMARK   28  A    between atoms: _70  and  _71
REMARK   29  A    between atoms: _81  and  _83
REMARK   30  A    between atoms: _83  and  _84
REMARK   31  A    between atoms: _83  and  _86
REMARK   32  A    between atoms: _86  and  _87
REMARK   33  A    between atoms: _90  and  _92
REMARK   34  A    between atoms: _92  and  _93
REMARK   35  A    between atoms: _92  and  _95
REMARK   36  A    between atoms: _95  and  _96
REMARK   37  A    between atoms: _96  and  _97
REMARK   38  A    between atoms: _102  and  _104
REMARK   39  A    between atoms: _104  and  _105
REMARK   40  A    between atoms: _104  and  _107
REMARK   41  A    between atoms: _107  and  _108
REMARK   42  A    between atoms: _113  and  _115
REMARK   43  A    between atoms: _115  and  _116
REMARK   44  A    between atoms: _115  and  _118
REMARK   45  A    between atoms: _118  and  _119
REMARK   46  A    between atoms: _119  and  _120
REMARK   47  A    between atoms: _123  and  _125
REMARK   48  A    between atoms: _125  and  _126
REMARK   49  A    between atoms: _125  and  _128
REMARK   50  A    between atoms: _128  and  _129
REMARK   51  A    between atoms: _135  and  _137
REMARK   52  A    between atoms: _137  and  _138
REMARK   53  A    between atoms: _141  and  _143
REMARK   54  A    between atoms: _143  and  _144
REMARK   55  A    between atoms: _143  and  _146
REMARK   56  A    between atoms: _146  and  _147
REMARK   57  A    between atoms: _147  and  _148
REMARK   58  A    between atoms: _150  and  _152
REMARK   59  A    between atoms: _152  and  _153
REMARK   60  A    between atoms: _152  and  _155
REMARK   61  A    between atoms: _155  and  _156
REMARK   62  A    between atoms: _158  and  _160
REMARK   63  A    between atoms: _160  and  _161
REMARK   64  A    between atoms: _160  and  _163
REMARK   65  A    between atoms: _163  and  _164
REMARK   66  A    between atoms: _167  and  _169
REMARK   67  A    between atoms: _169  and  _170
REMARK   68  A    between atoms: _169  and  _172
REMARK   69  A    between atoms: _172  and  _173
REMARK   70  A    between atoms: _173  and  _174
REMARK   71  A    between atoms: _174  and  _175
REMARK   72  A    between atoms: _175  and  _176
REMARK   73  A    between atoms: _180  and  _182
REMARK   74  A    between atoms: _182  and  _183
REMARK   75  A    between atoms: _182  and  _185
REMARK   76  A    between atoms: _188  and  _190
REMARK   77  A    between atoms: _190  and  _191
REMARK   78  A    between atoms: _190  and  _193
REMARK   79  A    between atoms: _193  and  _194
REMARK   80  A    between atoms: _196  and  _198
REMARK   81  A    between atoms: _198  and  _199
REMARK   82  A    between atoms: _198  and  _201
REMARK   83  A    between atoms: _204  and  _206
REMARK   84  A    between atoms: _206  and  _207
REMARK   85  A    between atoms: _206  and  _209
REMARK   86  A    between atoms: _209  and  _210
REMARK   87  A    between atoms: _210  and  _211
REMARK   88  A    between atoms: _214  and  _216
REMARK   89  A    between atoms: _216  and  _217
REMARK   90  A    between atoms: _216  and  _219
REMARK   91  A    between atoms: _219  and  _220
REMARK   92  A    between atoms: _223  and  _225
REMARK   93  A    between atoms: _225  and  _226
REMARK   94  A    between atoms: _229  and  _231
REMARK   95  A    between atoms: _231  and  _232
REMARK   96  A    between atoms: _231  and  _234
REMARK   97  A    between atoms: _234  and  _235
REMARK   98  A    between atoms: _246  and  _247
REMARK   99  A    between atoms: _252  and  _254
REMARK  100  A    between atoms: _254  and  _255
REMARK  101  A    between atoms: _258  and  _260
REMARK  102  A    between atoms: _260  and  _261
REMARK  103  A    between atoms: _260  and  _263
REMARK  104  A    between atoms: _263  and  _264
REMARK  105  A    between atoms: _269  and  _271
REMARK  106  A    between atoms: _271  and  _272
REMARK  107  A    between atoms: _271  and  _274
REMARK  108  A    between atoms: _274  and  _275
REMARK  109  A    between atoms: _280  and  _281
REMARK  110  A    between atoms: _283  and  _285
REMARK  111  A    between atoms: _285  and  _286
REMARK  112  A    between atoms: _289  and  _291
REMARK  113  A    between atoms: _291  and  _292
REMARK  114  A    between atoms: _291  and  _294
REMARK  115  A    between atoms: _294  and  _295
REMARK  116  A    between atoms: _295  and  _296
REMARK  117  A    between atoms: _301  and  _303
REMARK  118  A    between atoms: _303  and  _304
REMARK  119  A    between atoms: _303  and  _306
REMARK  120  A    between atoms: _306  and  _307
REMARK  121  A    between atoms: _307  and  _308
REMARK  122  A    between atoms: _310  and  _312
REMARK  123  A    between atoms: _312  and  _313
REMARK  124  A    between atoms: _315  and  _317
REMARK  125  A    between atoms: _317  and  _318
REMARK  126  A    between atoms: _321  and  _323
REMARK  127  A    between atoms: _323  and  _324
REMARK  128  A    between atoms: _323  and  _326
REMARK  129  A    between atoms: _326  and  _327
REMARK  130  A    between atoms: _337  and  _339
REMARK  131  A    between atoms: _339  and  _340
REMARK  132  A    between atoms: _339  and  _342
REMARK  133  A    between atoms: _342  and  _343
REMARK  134  A    between atoms: _343  and  _344
REMARK  135  A    between atoms: _347  and  _349
REMARK  136  A    between atoms: _349  and  _350
REMARK  137  A    between atoms: _352  and  _354
REMARK  138  A    between atoms: _354  and  _355
REMARK  139  A    between atoms: _354  and  _357
REMARK  140  A    between atoms: _360  and  _362
REMARK  141  A    between atoms: _362  and  _363
REMARK  142  A    between atoms: _362  and  _365
REMARK  143  A    between atoms: _365  and  _366
REMARK  144  A    between atoms: _366  and  _367
REMARK  145  A    between atoms: _369  and  _371
REMARK  146  A    between atoms: _371  and  _372
REMARK  147  A    between atoms: _374  and  _376
REMARK  148  A    between atoms: _376  and  _377
REMARK  149  A    between atoms: _379  and  _381
REMARK  150  A    between atoms: _381  and  _382
REMARK  151  A    between atoms: _381  and  _384
REMARK  152  A    between atoms: _387  and  _389
REMARK  153  A    between atoms: _389  and  _390
REMARK  154  A    between atoms: _389  and  _392
REMARK  155  A    between atoms: _392  and  _393
REMARK  156  A    between atoms: _396  and  _398
REMARK  157  A    between atoms: _398  and  _399
REMARK  158  A    between atoms: _398  and  _401
REMARK  159  A    between atoms: _401  and  _402
REMARK  160  A    between atoms: _407  and  _408
REMARK  161  A    between atoms: _410  and  _412
REMARK  162  A    between atoms: _412  and  _413
REMARK  163  A    between atoms: _412  and  _415
REMARK  164  A    between atoms: _415  and  _416
REMARK  165  A    between atoms: _422  and  _424
REMARK  166  A    between atoms: _424  and  _425
REMARK  167  A    between atoms: _424  and  _427
REMARK  168  A    between atoms: _427  and  _428
REMARK  169  A    between atoms: _428  and  _429
REMARK  170  A    between atoms: _434  and  _436
REMARK  171  A    between atoms: _436  and  _437
REMARK  172  A    between atoms: _436  and  _439
REMARK  173  A    between atoms: _439  and  _440
REMARK  174  A    between atoms: _445  and  _446
REMARK  175  A    between atoms: _448  and  _450
REMARK  176  A    between atoms: _450  and  _451
REMARK  177  A    between atoms: _454  and  _456
REMARK  178  A    between atoms: _456  and  _457
REMARK  179  A    between atoms: _456  and  _459
REMARK  180  A    between atoms: _459  and  _460
REMARK  181  A    between atoms: _466  and  _468
REMARK  182  A    between atoms: _468  and  _469
REMARK  183  A    between atoms: _468  and  _471
REMARK  184  A    between atoms: _471  and  _472
REMARK  185  A    between atoms: _474  and  _476
REMARK  186  A    between atoms: _476  and  _477
REMARK  187  A    between atoms: _476  and  _479
REMARK  188  A    between atoms: _479  and  _480
REMARK  189  A    between atoms: _483  and  _485
REMARK  190  A    between atoms: _485  and  _486
REMARK  191  A    between atoms: _485  and  _488
REMARK  192  A    between atoms: _488  and  _489
REMARK  193  A    between atoms: _493  and  _494
REMARK  194  A    between atoms: _499  and  _501
REMARK  195  A    between atoms: _501  and  _502
REMARK  196  A    between atoms: _505  and  _507
REMARK  197  A    between atoms: _507  and  _508
REMARK  198  A    between atoms: _507  and  _510
REMARK  199  A    between atoms: _510  and  _511
REMARK  200  A    between atoms: _514  and  _516
REMARK  201  A    between atoms: _516  and  _517
REMARK  202  A    between atoms: _516  and  _519
REMARK  203  A    between atoms: _519  and  _520
REMARK  204  A    between atoms: _530  and  _532
REMARK  205  A    between atoms: _532  and  _533
REMARK  206  A    between atoms: _532  and  _535
REMARK  207  A    between atoms: _535  and  _536
REMARK  208  A    between atoms: _536  and  _537
REMARK  209  A    between atoms: _539  and  _541
REMARK  210  A    between atoms: _541  and  _542
REMARK  211  A    between atoms: _541  and  _544
REMARK  212  A    between atoms: _544  and  _545
REMARK  213  A    between atoms: _548  and  _550
REMARK  214  A    between atoms: _550  and  _551
REMARK  215  A    between atoms: _550  and  _553
REMARK  216  A    between atoms: _553  and  _554
REMARK  217  A    between atoms: _557  and  _559
REMARK  218  A    between atoms: _559  and  _560
REMARK  219  A    between atoms: _563  and  _565
REMARK  220  A    between atoms: _565  and  _566
REMARK  221  A    between atoms: _568  and  _570
REMARK  222  A    between atoms: _570  and  _571
REMARK  223  A    between atoms: _570  and  _573
REMARK  224  A    between atoms: _573  and  _574
REMARK  225  A    between atoms: _579  and  _581
REMARK  226  A    between atoms: _581  and  _582
REMARK  227  A    between atoms: _581  and  _584
REMARK  228  A    between atoms: _584  and  _585
REMARK                            x       y       z     vdW  Elec       q    Type
REMARK                         _______ _______ _______ _____ _____    ______ ____
ROOT
ATOM      1  O   HOH     1     -23.126  26.942 -12.063  0.00  0.00    +0.000 OA
ENDROOT
TORSDOF 0
REMARK  Name = ../refined-set-2016/4c1u/4c1u_pocket.pdb
REMARK  228 active torsions:
REMARK  status: ('A' for Active; 'I' for Inactive)
REMARK    1  A    between atoms: _1  and  _3
REMARK    2  A    between atoms: _3  and  _4
REMARK    3  A    between atoms: _3  and  _6
REMARK    4  A    between atoms: _6  and  _7
REMARK    5  A    between atoms: _12  and  _14
REMARK    6  A    between atoms: _14  and  _15
REMARK    7  A    between atoms: _14  and  _17
REMARK    8  A    between atoms: _17  and  _18
REMARK    9  A    between atoms: _23  and  _25
REMARK   10  A    between atoms: _25  and  _26
REMARK   11  A    between atoms: _29  and  _31
REMARK   12  A    between atoms: _31  and  _32
REMARK   13  A    between atoms: _31  and  _34
REMARK   14  A    between atoms: _34  and  _35
REMARK   15  A    between atoms: _37  and  _39
REMARK   16  A    between atoms: _39  and  _40
REMARK   17  A    between atoms: _43  and  _45
REMARK   18  A    between atoms: _45  and  _46
REMARK   19  A    between atoms: _48  and  _50
REMARK   20  A    between atoms: _50  and  _51
REMARK   21  A    between atoms: _50  and  _53
REMARK   22  A    between atoms: _53  and  _54
REMARK   23  A    between atoms: _54  and  _55
REMARK   24  A    between atoms: _55  and  _56
REMARK   25  A    between atoms: _65  and  _67
REMARK   26  A    between atoms: _67  and  _68
REMARK   27  A    between atoms: _67  and  _70
REMARK   28  A    between atoms: _70  and  _71
REMARK   29  A    between atoms: _81  and  _83
REMARK   30  A    between atoms: _83  and  _84
REMARK   31  A    between atoms: _83  and  _86
REMARK   32  A    between atoms: _86  and  _87
REMARK   33  A    between atoms: _90  and  _92
REMARK   34  A    between atoms: _92  and  _93
REMARK   35  A    between atoms: _92  and  _95
REMARK   36  A    between atoms: _95  and  _96
REMARK   37  A    between atoms: _96  and  _97
REMARK   38  A    between atoms: _102  and  _104
REMARK   39  A    between atoms: _104  and  _105
REMARK   40  A    between atoms: _104  and  _107
REMARK   41  A    between atoms: _107  and  _108
REMARK   42  A    between atoms: _113  and  _115
REMARK   43  A    between atoms: _115  and  _116
REMARK   44  A    between atoms: _115  and  _118
REMARK   45  A    between atoms: _118  and  _119
REMARK   46  A    between atoms: _119  and  _120
REMARK   47  A    between atoms: _123  and  _125
REMARK   48  A    between atoms: _125  and  _126
REMARK   49  A    between atoms: _125  and  _128
REMARK   50  A    between atoms: _128  and  _129
REMARK   51  A    between atoms: _135  and  _137
REMARK   52  A    between atoms: _137  and  _138
REMARK   53  A    between atoms: _141  and  _143
REMARK   54  A    between atoms: _143  and  _144
REMARK   55  A    between atoms: _143  and  _146
REMARK   56  A    between atoms: _146  and  _147
REMARK   57  A    between atoms: _147  and  _148
REMARK   58  A    between atoms: _150  and  _152
REMARK   59  A    between atoms: _152  and  _153
REMARK   60  A    between atoms: _152  and  _155
REMARK   61  A    between atoms: _155  and  _156
REMARK   62  A    between atoms: _158  and  _160
REMARK   63  A    between atoms: _160  and  _161
REMARK   64  A    between atoms: _160  and  _163
REMARK   65  A    between atoms: _163  and  _164
REMARK   66  A    between atoms: _167  and  _169
REMARK   67  A    between atoms: _169  and  _170
REMARK   68  A    between atoms: _169  and  _172
REMARK   69  A    between atoms: _172  and  _173
REMARK   70  A    between atoms: _173  and  _174
REMARK   71  A    between atoms: _174  and  _175
REMARK   72  A    between atoms: _175  and  _176
REMARK   73  A    between atoms: _180  and  _182
REMARK   74  A    between atoms: _182  and  _183
REMARK   75  A    between atoms: _182  and  _185
REMARK   76  A    between atoms: _188  and  _190
REMARK   77  A    between atoms: _190  and  _191
REMARK   78  A    between atoms: _190  and  _193
REMARK   79  A    between atoms: _193  and  _194
REMARK   80  A    between atoms: _196  and  _198
REMARK   81  A    between atoms: _198  and  _199
REMARK   82  A    between atoms: _198  and  _201
REMARK   83  A    between atoms: _204  and  _206
REMARK   84  A    between atoms: _206  and  _207
REMARK   85  A    between atoms: _206  and  _209
REMARK   86  A    between atoms: _209  and  _210
REMARK   87  A    between atoms: _210  and  _211
REMARK   88  A    between atoms: _214  and  _216
REMARK   89  A    between atoms: _216  and  _217
REMARK   90  A    between atoms: _216  and  _219
REMARK   91  A    between atoms: _219  and  _220
REMARK   92  A    between atoms: _223  and  _225
REMARK   93  A    between atoms: _225  and  _226
REMARK   94  A    between atoms: _229  and  _231
REMARK   95  A    between atoms: _231  and  _232
REMARK   96  A    between atoms: _231  and  _234
REMARK   97  A    between atoms: _234  and  _235
REMARK   98  A    between atoms: _246  and  _247
REMARK   99  A    between atoms: _252  and  _254
REMARK  100  A    between atoms: _254  and  _255
REMARK  101  A    between atoms: _258  and  _260
REMARK  102  A    between atoms: _260  and  _261
REMARK  103  A    between atoms: _260  and  _263
REMARK  104  A    between atoms: _263  and  _264
REMARK  105  A    between atoms: _269  and  _271
REMARK  106  A    between atoms: _271  and  _272
REMARK  107  A    between atoms: _271  and  _274
REMARK  108  A    between atoms: _274  and  _275
REMARK  109  A    between atoms: _280  and  _281
REMARK  110  A    between atoms: _283  and  _285
REMARK  111  A    between atoms: _285  and  _286
REMARK  112  A    between atoms: _289  and  _291
REMARK  113  A    between atoms: _291  and  _292
REMARK  114  A    between atoms: _291  and  _294
REMARK  115  A    between atoms: _294  and  _295
REMARK  116  A    between atoms: _295  and  _296
REMARK  117  A    between atoms: _301  and  _303
REMARK  118  A    between atoms: _303  and  _304
REMARK  119  A    between atoms: _303  and  _306
REMARK  120  A    between atoms: _306  and  _307
REMARK  121  A    between atoms: _307  and  _308
REMARK  122  A    between atoms: _310  and  _312
REMARK  123  A    between atoms: _312  and  _313
REMARK  124  A    between atoms: _315  and  _317
REMARK  125  A    between atoms: _317  and  _318
REMARK  126  A    between atoms: _321  and  _323
REMARK  127  A    between atoms: _323  and  _324
REMARK  128  A    between atoms: _323  and  _326
REMARK  129  A    between atoms: _326  and  _327
REMARK  130  A    between atoms: _337  and  _339
REMARK  131  A    between atoms: _339  and  _340
REMARK  132  A    between atoms: _339  and  _342
REMARK  133  A    between atoms: _342  and  _343
REMARK  134  A    between atoms: _343  and  _344
REMARK  135  A    between atoms: _347  and  _349
REMARK  136  A    between atoms: _349  and  _350
REMARK  137  A    between atoms: _352  and  _354
REMARK  138  A    between atoms: _354  and  _355
REMARK  139  A    between atoms: _354  and  _357
REMARK  140  A    between atoms: _360  and  _362
REMARK  141  A    between atoms: _362  and  _363
REMARK  142  A    between atoms: _362  and  _365
REMARK  143  A    between atoms: _365  and  _366
REMARK  144  A    between atoms: _366  and  _367
REMARK  145  A    between atoms: _369  and  _371
REMARK  146  A    between atoms: _371  and  _372
REMARK  147  A    between atoms: _374  and  _376
REMARK  148  A    between atoms: _376  and  _377
REMARK  149  A    between atoms: _379  and  _381
REMARK  150  A    between atoms: _381  and  _382
REMARK  151  A    between atoms: _381  and  _384
REMARK  152  A    between atoms: _387  and  _389
REMARK  153  A    between atoms: _389  and  _390
REMARK  154  A    between atoms: _389  and  _392
REMARK  155  A    between atoms: _392  and  _393
REMARK  156  A    between atoms: _396  and  _398
REMARK  157  A    between atoms: _398  and  _399
REMARK  158  A    between atoms: _398  and  _401
REMARK  159  A    between atoms: _401  and  _402
REMARK  160  A    between atoms: _407  and  _408
REMARK  161  A    between atoms: _410  and  _412
REMARK  162  A    between atoms: _412  and  _413
REMARK  163  A    between atoms: _412  and  _415
REMARK  164  A    between atoms: _415  and  _416
REMARK  165  A    between atoms: _422  and  _424
REMARK  166  A    between atoms: _424  and  _425
REMARK  167  A    between atoms: _424  and  _427
REMARK  168  A    between atoms: _427  and  _428
REMARK  169  A    between atoms: _428  and  _429
REMARK  170  A    between atoms: _434  and  _436
REMARK  171  A    between atoms: _436  and  _437
REMARK  172  A    between atoms: _436  and  _439
REMARK  173  A    between atoms: _439  and  _440
REMARK  174  A    between atoms: _445  and  _446
REMARK  175  A    between atoms: _448  and  _450
REMARK  176  A    between atoms: _450  and  _451
REMARK  177  A    between atoms: _454  and  _456
REMARK  178  A    between atoms: _456  and  _457
REMARK  179  A    between atoms: _456  and  _459
REMARK  180  A    between atoms: _459  and  _460
REMARK  181  A    between atoms: _466  and  _468
REMARK  182  A    between atoms: _468  and  _469
REMARK  183  A    between atoms: _468  and  _471
REMARK  184  A    between atoms: _471  and  _472
REMARK  185  A    between atoms: _474  and  _476
REMARK  186  A    between atoms: _476  and  _477
REMARK  187  A    between atoms: _476  and  _479
REMARK  188  A    between atoms: _479  and  _480
REMARK  189  A    between atoms: _483  and  _485
REMARK  190  A    between atoms: _485  and  _486
REMARK  191  A    between atoms: _485  and  _488
REMARK  192  A    between atoms: _488  and  _489
REMARK  193  A    between atoms: _493  and  _494
REMARK  194  A    between atoms: _499  and  _501
REMARK  195  A    between atoms: _501  and  _502
REMARK  196  A    between atoms: _505  and  _507
REMARK  197  A    between atoms: _507  and  _508
REMARK  198  A    between atoms: _507  and  _510
REMARK  199  A    between atoms: _510  and  _511
REMARK  200  A    between atoms: _514  and  _516
REMARK  201  A    between atoms: _516  and  _517
REMARK  202  A    between atoms: _516  and  _519
REMARK  203  A    between atoms: _519  and  _520
REMARK  204  A    between atoms: _530  and  _532
REMARK  205  A    between atoms: _532  and  _533
REMARK  206  A    between atoms: _532  and  _535
REMARK  207  A    between atoms: _535  and  _536
REMARK  208  A    between atoms: _536  and  _537
REMARK  209  A    between atoms: _539  and  _541
REMARK  210  A    between atoms: _541  and  _542
REMARK  211  A    between atoms: _541  and  _544
REMARK  212  A    between atoms: _544  and  _545
REMARK  213  A    between atoms: _548  and  _550
REMARK  214  A    between atoms: _550  and  _551
REMARK  215  A    between atoms: _550  and  _553
REMARK  216  A    between atoms: _553  and  _554
REMARK  217  A    between atoms: _557  and  _559
REMARK  218  A    between atoms: _559  and  _560
REMARK  219  A    between atoms: _563  and  _565
REMARK  220  A    between atoms: _565  and  _566
REMARK  221  A    between atoms: _568  and  _570
REMARK  222  A    between atoms: _570  and  _571
REMARK  223  A    between atoms: _570  and  _573
REMARK  224  A    between atoms: _573  and  _574
REMARK  225  A    between atoms: _579  and  _581
REMARK  226  A    between atoms: _581  and  _582
REMARK  227  A    between atoms: _581  and  _584
REMARK  228  A    between atoms: _584  and  _585
REMARK                            x       y       z     vdW  Elec       q    Type
REMARK                         _______ _______ _______ _____ _____    ______ ____
ROOT
ATOM      1  O   HOH     1     -22.924  18.663 -13.085  0.00  0.00    +0.000 OA
ENDROOT
TORSDOF 0
REMARK  Name = ../refined-set-2016/4c1u/4c1u_pocket.pdb
REMARK  228 active torsions:
REMARK  status: ('A' for Active; 'I' for Inactive)
REMARK    1  A    between atoms: _1  and  _3
REMARK    2  A    between atoms: _3  and  _4
REMARK    3  A    between atoms: _3  and  _6
REMARK    4  A    between atoms: _6  and  _7
REMARK    5  A    between atoms: _12  and  _14
REMARK    6  A    between atoms: _14  and  _15
REMARK    7  A    between atoms: _14  and  _17
REMARK    8  A    between atoms: _17  and  _18
REMARK    9  A    between atoms: _23  and  _25
REMARK   10  A    between atoms: _25  and  _26
REMARK   11  A    between atoms: _29  and  _31
REMARK   12  A    between atoms: _31  and  _32
REMARK   13  A    between atoms: _31  and  _34
REMARK   14  A    between atoms: _34  and  _35
REMARK   15  A    between atoms: _37  and  _39
REMARK   16  A    between atoms: _39  and  _40
REMARK   17  A    between atoms: _43  and  _45
REMARK   18  A    between atoms: _45  and  _46
REMARK   19  A    between atoms: _48  and  _50
REMARK   20  A    between atoms: _50  and  _51
REMARK   21  A    between atoms: _50  and  _53
REMARK   22  A    between atoms: _53  and  _54
REMARK   23  A    between atoms: _54  and  _55
REMARK   24  A    between atoms: _55  and  _56
REMARK   25  A    between atoms: _65  and  _67
REMARK   26  A    between atoms: _67  and  _68
REMARK   27  A    between atoms: _67  and  _70
REMARK   28  A    between atoms: _70  and  _71
REMARK   29  A    between atoms: _81  and  _83
REMARK   30  A    between atoms: _83  and  _84
REMARK   31  A    between atoms: _83  and  _86
REMARK   32  A    between atoms: _86  and  _87
REMARK   33  A    between atoms: _90  and  _92
REMARK   34  A    between atoms: _92  and  _93
REMARK   35  A    between atoms: _92  and  _95
REMARK   36  A    between atoms: _95  and  _96
REMARK   37  A    between atoms: _96  and  _97
REMARK   38  A    between atoms: _102  and  _104
REMARK   39  A    between atoms: _104  and  _105
REMARK   40  A    between atoms: _104  and  _107
REMARK   41  A    between atoms: _107  and  _108
REMARK   42  A    between atoms: _113  and  _115
REMARK   43  A    between atoms: _115  and  _116
REMARK   44  A    between atoms: _115  and  _118
REMARK   45  A    between atoms: _118  and  _119
REMARK   46  A    between atoms: _119  and  _120
REMARK   47  A    between atoms: _123  and  _125
REMARK   48  A    between atoms: _125  and  _126
REMARK   49  A    between atoms: _125  and  _128
REMARK   50  A    between atoms: _128  and  _129
REMARK   51  A    between atoms: _135  and  _137
REMARK   52  A    between atoms: _137  and  _138
REMARK   53  A    between atoms: _141  and  _143
REMARK   54  A    between atoms: _143  and  _144
REMARK   55  A    between atoms: _143  and  _146
REMARK   56  A    between atoms: _146  and  _147
REMARK   57  A    between atoms: _147  and  _148
REMARK   58  A    between atoms: _150  and  _152
REMARK   59  A    between atoms: _152  and  _153
REMARK   60  A    between atoms: _152  and  _155
REMARK   61  A    between atoms: _155  and  _156
REMARK   62  A    between atoms: _158  and  _160
REMARK   63  A    between atoms: _160  and  _161
REMARK   64  A    between atoms: _160  and  _163
REMARK   65  A    between atoms: _163  and  _164
REMARK   66  A    between atoms: _167  and  _169
REMARK   67  A    between atoms: _169  and  _170
REMARK   68  A    between atoms: _169  and  _172
REMARK   69  A    between atoms: _172  and  _173
REMARK   70  A    between atoms: _173  and  _174
REMARK   71  A    between atoms: _174  and  _175
REMARK   72  A    between atoms: _175  and  _176
REMARK   73  A    between atoms: _180  and  _182
REMARK   74  A    between atoms: _182  and  _183
REMARK   75  A    between atoms: _182  and  _185
REMARK   76  A    between atoms: _188  and  _190
REMARK   77  A    between atoms: _190  and  _191
REMARK   78  A    between atoms: _190  and  _193
REMARK   79  A    between atoms: _193  and  _194
REMARK   80  A    between atoms: _196  and  _198
REMARK   81  A    between atoms: _198  and  _199
REMARK   82  A    between atoms: _198  and  _201
REMARK   83  A    between atoms: _204  and  _206
REMARK   84  A    between atoms: _206  and  _207
REMARK   85  A    between atoms: _206  and  _209
REMARK   86  A    between atoms: _209  and  _210
REMARK   87  A    between atoms: _210  and  _211
REMARK   88  A    between atoms: _214  and  _216
REMARK   89  A    between atoms: _216  and  _217
REMARK   90  A    between atoms: _216  and  _219
REMARK   91  A    between atoms: _219  and  _220
REMARK   92  A    between atoms: _223  and  _225
REMARK   93  A    between atoms: _225  and  _226
REMARK   94  A    between atoms: _229  and  _231
REMARK   95  A    between atoms: _231  and  _232
REMARK   96  A    between atoms: _231  and  _234
REMARK   97  A    between atoms: _234  and  _235
REMARK   98  A    between atoms: _246  and  _247
REMARK   99  A    between atoms: _252  and  _254
REMARK  100  A    between atoms: _254  and  _255
REMARK  101  A    between atoms: _258  and  _260
REMARK  102  A    between atoms: _260  and  _261
REMARK  103  A    between atoms: _260  and  _263
REMARK  104  A    between atoms: _263  and  _264
REMARK  105  A    between atoms: _269  and  _271
REMARK  106  A    between atoms: _271  and  _272
REMARK  107  A    between atoms: _271  and  _274
REMARK  108  A    between atoms: _274  and  _275
REMARK  109  A    between atoms: _280  and  _281
REMARK  110  A    between atoms: _283  and  _285
REMARK  111  A    between atoms: _285  and  _286
REMARK  112  A    between atoms: _289  and  _291
REMARK  113  A    between atoms: _291  and  _292
REMARK  114  A    between atoms: _291  and  _294
REMARK  115  A    between atoms: _294  and  _295
REMARK  116  A    between atoms: _295  and  _296
REMARK  117  A    between atoms: _301  and  _303
REMARK  118  A    between atoms: _303  and  _304
REMARK  119  A    between atoms: _303  and  _306
REMARK  120  A    between atoms: _306  and  _307
REMARK  121  A    between atoms: _307  and  _308
REMARK  122  A    between atoms: _310  and  _312
REMARK  123  A    between atoms: _312  and  _313
REMARK  124  A    between atoms: _315  and  _317
REMARK  125  A    between atoms: _317  and  _318
REMARK  126  A    between atoms: _321  and  _323
REMARK  127  A    between atoms: _323  and  _324
REMARK  128  A    between atoms: _323  and  _326
REMARK  129  A    between atoms: _326  and  _327
REMARK  130  A    between atoms: _337  and  _339
REMARK  131  A    between atoms: _339  and  _340
REMARK  132  A    between atoms: _339  and  _342
REMARK  133  A    between atoms: _342  and  _343
REMARK  134  A    between atoms: _343  and  _344
REMARK  135  A    between atoms: _347  and  _349
REMARK  136  A    between atoms: _349  and  _350
REMARK  137  A    between atoms: _352  and  _354
REMARK  138  A    between atoms: _354  and  _355
REMARK  139  A    between atoms: _354  and  _357
REMARK  140  A    between atoms: _360  and  _362
REMARK  141  A    between atoms: _362  and  _363
REMARK  142  A    between atoms: _362  and  _365
REMARK  143  A    between atoms: _365  and  _366
REMARK  144  A    between atoms: _366  and  _367
REMARK  145  A    between atoms: _369  and  _371
REMARK  146  A    between atoms: _371  and  _372
REMARK  147  A    between atoms: _374  and  _376
REMARK  148  A    between atoms: _376  and  _377
REMARK  149  A    between atoms: _379  and  _381
REMARK  150  A    between atoms: _381  and  _382
REMARK  151  A    between atoms: _381  and  _384
REMARK  152  A    between atoms: _387  and  _389
REMARK  153  A    between atoms: _389  and  _390
REMARK  154  A    between atoms: _389  and  _392
REMARK  155  A    between atoms: _392  and  _393
REMARK  156  A    between atoms: _396  and  _398
REMARK  157  A    between atoms: _398  and  _399
REMARK  158  A    between atoms: _398  and  _401
REMARK  159  A    between atoms: _401  and  _402
REMARK  160  A    between atoms: _407  and  _408
REMARK  161  A    between atoms: _410  and  _412
REMARK  162  A    between atoms: _412  and  _413
REMARK  163  A    between atoms: _412  and  _415
REMARK  164  A    between atoms: _415  and  _416
REMARK  165  A    between atoms: _422  and  _424
REMARK  166  A    between atoms: _424  and  _425
REMARK  167  A    between atoms: _424  and  _427
REMARK  168  A    between atoms: _427  and  _428
REMARK  169  A    between atoms: _428  and  _429
REMARK  170  A    between atoms: _434  and  _436
REMARK  171  A    between atoms: _436  and  _437
REMARK  172  A    between atoms: _436  and  _439
REMARK  173  A    between atoms: _439  and  _440
REMARK  174  A    between atoms: _445  and  _446
REMARK  175  A    between atoms: _448  and  _450
REMARK  176  A    between atoms: _450  and  _451
REMARK  177  A    between atoms: _454  and  _456
REMARK  178  A    between atoms: _456  and  _457
REMARK  179  A    between atoms: _456  and  _459
REMARK  180  A    between atoms: _459  and  _460
REMARK  181  A    between atoms: _466  and  _468
REMARK  182  A    between atoms: _468  and  _469
REMARK  183  A    between atoms: _468  and  _471
REMARK  184  A    between atoms: _471  and  _472
REMARK  185  A    between atoms: _474  and  _476
REMARK  186  A    between atoms: _476  and  _477
REMARK  187  A    between atoms: _476  and  _479
REMARK  188  A    between atoms: _479  and  _480
REMARK  189  A    between atoms: _483  and  _485
REMARK  190  A    between atoms: _485  and  _486
REMARK  191  A    between atoms: _485  and  _488
REMARK  192  A    between atoms: _488  and  _489
REMARK  193  A    between atoms: _493  and  _494
REMARK  194  A    between atoms: _499  and  _501
REMARK  195  A    between atoms: _501  and  _502
REMARK  196  A    between atoms: _505  and  _507
REMARK  197  A    between atoms: _507  and  _508
REMARK  198  A    between atoms: _507  and  _510
REMARK  199  A    between atoms: _510  and  _511
REMARK  200  A    between atoms: _514  and  _516
REMARK  201  A    between atoms: _516  and  _517
REMARK  202  A    between atoms: _516  and  _519
REMARK  203  A    between atoms: _519  and  _520
REMARK  204  A    between atoms: _530  and  _532
REMARK  205  A    between atoms: _532  and  _533
REMARK  206  A    between atoms: _532  and  _535
REMARK  207  A    between atoms: _535  and  _536
REMARK  208  A    between atoms: _536  and  _537
REMARK  209  A    between atoms: _539  and  _541
REMARK  210  A    between atoms: _541  and  _542
REMARK  211  A    between atoms: _541  and  _544
REMARK  212  A    between atoms: _544  and  _545
REMARK  213  A    between atoms: _548  and  _550
REMARK  214  A    between atoms: _550  and  _551
REMARK  215  A    between atoms: _550  and  _553
REMARK  216  A    between atoms: _553  and  _554
REMARK  217  A    between atoms: _557  and  _559
REMARK  218  A    between atoms: _559  and  _560
REMARK  219  A    between atoms: _563  and  _565
REMARK  220  A    between atoms: _565  and  _566
REMARK  221  A    between atoms: _568  and  _570
REMARK  222  A    between atoms: _570  and  _571
REMARK  223  A    between atoms: _570  and  _573
REMARK  224  A    between atoms: _573  and  _574
REMARK  225  A    between atoms: _579  and  _581
REMARK  226  A    between atoms: _581  and  _582
REMARK  227  A    between atoms: _581  and  _584
REMARK  228  A    between atoms: _584  and  _585
REMARK                            x       y       z     vdW  Elec       q    Type
REMARK                         _______ _______ _______ _____ _____    ______ ____
ROOT
ATOM      1  O   HOH     1     -22.895  25.301 -14.128  0.00  0.00    +0.000 OA
ENDROOT
TORSDOF 0
REMARK  Name = ../refined-set-2016/4c1u/4c1u_pocket.pdb
REMARK  228 active torsions:
REMARK  status: ('A' for Active; 'I' for Inactive)
REMARK    1  A    between atoms: _1  and  _3
REMARK    2  A    between atoms: _3  and  _4
REMARK    3  A    between atoms: _3  and  _6
REMARK    4  A    between atoms: _6  and  _7
REMARK    5  A    between atoms: _12  and  _14
REMARK    6  A    between atoms: _14  and  _15
REMARK    7  A    between atoms: _14  and  _17
REMARK    8  A    between atoms: _17  and  _18
REMARK    9  A    between atoms: _23  and  _25
REMARK   10  A    between atoms: _25  and  _26
REMARK   11  A    between atoms: _29  and  _31
REMARK   12  A    between atoms: _31  and  _32
REMARK   13  A    between atoms: _31  and  _34
REMARK   14  A    between atoms: _34  and  _35
REMARK   15  A    between atoms: _37  and  _39
REMARK   16  A    between atoms: _39  and  _40
REMARK   17  A    between atoms: _43  and  _45
REMARK   18  A    between atoms: _45  and  _46
REMARK   19  A    between atoms: _48  and  _50
REMARK   20  A    between atoms: _50  and  _51
REMARK   21  A    between atoms: _50  and  _53
REMARK   22  A    between atoms: _53  and  _54
REMARK   23  A    between atoms: _54  and  _55
REMARK   24  A    between atoms: _55  and  _56
REMARK   25  A    between atoms: _65  and  _67
REMARK   26  A    between atoms: _67  and  _68
REMARK   27  A    between atoms: _67  and  _70
REMARK   28  A    between atoms: _70  and  _71
REMARK   29  A    between atoms: _81  and  _83
REMARK   30  A    between atoms: _83  and  _84
REMARK   31  A    between atoms: _83  and  _86
REMARK   32  A    between atoms: _86  and  _87
REMARK   33  A    between atoms: _90  and  _92
REMARK   34  A    between atoms: _92  and  _93
REMARK   35  A    between atoms: _92  and  _95
REMARK   36  A    between atoms: _95  and  _96
REMARK   37  A    between atoms: _96  and  _97
REMARK   38  A    between atoms: _102  and  _104
REMARK   39  A    between atoms: _104  and  _105
REMARK   40  A    between atoms: _104  and  _107
REMARK   41  A    between atoms: _107  and  _108
REMARK   42  A    between atoms: _113  and  _115
REMARK   43  A    between atoms: _115  and  _116
REMARK   44  A    between atoms: _115  and  _118
REMARK   45  A    between atoms: _118  and  _119
REMARK   46  A    between atoms: _119  and  _120
REMARK   47  A    between atoms: _123  and  _125
REMARK   48  A    between atoms: _125  and  _126
REMARK   49  A    between atoms: _125  and  _128
REMARK   50  A    between atoms: _128  and  _129
REMARK   51  A    between atoms: _135  and  _137
REMARK   52  A    between atoms: _137  and  _138
REMARK   53  A    between atoms: _141  and  _143
REMARK   54  A    between atoms: _143  and  _144
REMARK   55  A    between atoms: _143  and  _146
REMARK   56  A    between atoms: _146  and  _147
REMARK   57  A    between atoms: _147  and  _148
REMARK   58  A    between atoms: _150  and  _152
REMARK   59  A    between atoms: _152  and  _153
REMARK   60  A    between atoms: _152  and  _155
REMARK   61  A    between atoms: _155  and  _156
REMARK   62  A    between atoms: _158  and  _160
REMARK   63  A    between atoms: _160  and  _161
REMARK   64  A    between atoms: _160  and  _163
REMARK   65  A    between atoms: _163  and  _164
REMARK   66  A    between atoms: _167  and  _169
REMARK   67  A    between atoms: _169  and  _170
REMARK   68  A    between atoms: _169  and  _172
REMARK   69  A    between atoms: _172  and  _173
REMARK   70  A    between atoms: _173  and  _174
REMARK   71  A    between atoms: _174  and  _175
REMARK   72  A    between atoms: _175  and  _176
REMARK   73  A    between atoms: _180  and  _182
REMARK   74  A    between atoms: _182  and  _183
REMARK   75  A    between atoms: _182  and  _185
REMARK   76  A    between atoms: _188  and  _190
REMARK   77  A    between atoms: _190  and  _191
REMARK   78  A    between atoms: _190  and  _193
REMARK   79  A    between atoms: _193  and  _194
REMARK   80  A    between atoms: _196  and  _198
REMARK   81  A    between atoms: _198  and  _199
REMARK   82  A    between atoms: _198  and  _201
REMARK   83  A    between atoms: _204  and  _206
REMARK   84  A    between atoms: _206  and  _207
REMARK   85  A    between atoms: _206  and  _209
REMARK   86  A    between atoms: _209  and  _210
REMARK   87  A    between atoms: _210  and  _211
REMARK   88  A    between atoms: _214  and  _216
REMARK   89  A    between atoms: _216  and  _217
REMARK   90  A    between atoms: _216  and  _219
REMARK   91  A    between atoms: _219  and  _220
REMARK   92  A    between atoms: _223  and  _225
REMARK   93  A    between atoms: _225  and  _226
REMARK   94  A    between atoms: _229  and  _231
REMARK   95  A    between atoms: _231  and  _232
REMARK   96  A    between atoms: _231  and  _234
REMARK   97  A    between atoms: _234  and  _235
REMARK   98  A    between atoms: _246  and  _247
REMARK   99  A    between atoms: _252  and  _254
REMARK  100  A    between atoms: _254  and  _255
REMARK  101  A    between atoms: _258  and  _260
REMARK  102  A    between atoms: _260  and  _261
REMARK  103  A    between atoms: _260  and  _263
REMARK  104  A    between atoms: _263  and  _264
REMARK  105  A    between atoms: _269  and  _271
REMARK  106  A    between atoms: _271  and  _272
REMARK  107  A    between atoms: _271  and  _274
REMARK  108  A    between atoms: _274  and  _275
REMARK  109  A    between atoms: _280  and  _281
REMARK  110  A    between atoms: _283  and  _285
REMARK  111  A    between atoms: _285  and  _286
REMARK  112  A    between atoms: _289  and  _291
REMARK  113  A    between atoms: _291  and  _292
REMARK  114  A    between atoms: _291  and  _294
REMARK  115  A    between atoms: _294  and  _295
REMARK  116  A    between atoms: _295  and  _296
REMARK  117  A    between atoms: _301  and  _303
REMARK  118  A    between atoms: _303  and  _304
REMARK  119  A    between atoms: _303  and  _306
REMARK  120  A    between atoms: _306  and  _307
REMARK  121  A    between atoms: _307  and  _308
REMARK  122  A    between atoms: _310  and  _312
REMARK  123  A    between atoms: _312  and  _313
REMARK  124  A    between atoms: _315  and  _317
REMARK  125  A    between atoms: _317  and  _318
REMARK  126  A    between atoms: _321  and  _323
REMARK  127  A    between atoms: _323  and  _324
REMARK  128  A    between atoms: _323  and  _326
REMARK  129  A    between atoms: _326  and  _327
REMARK  130  A    between atoms: _337  and  _339
REMARK  131  A    between atoms: _339  and  _340
REMARK  132  A    between atoms: _339  and  _342
REMARK  133  A    between atoms: _342  and  _343
REMARK  134  A    between atoms: _343  and  _344
REMARK  135  A    between atoms: _347  and  _349
REMARK  136  A    between atoms: _349  and  _350
REMARK  137  A    between atoms: _352  and  _354
REMARK  138  A    between atoms: _354  and  _355
REMARK  139  A    between atoms: _354  and  _357
REMARK  140  A    between atoms: _360  and  _362
REMARK  141  A    between atoms: _362  and  _363
REMARK  142  A    between atoms: _362  and  _365
REMARK  143  A    between atoms: _365  and  _366
REMARK  144  A    between atoms: _366  and  _367
REMARK  145  A    between atoms: _369  and  _371
REMARK  146  A    between atoms: _371  and  _372
REMARK  147  A    between atoms: _374  and  _376
REMARK  148  A    between atoms: _376  and  _377
REMARK  149  A    between atoms: _379  and  _381
REMARK  150  A    between atoms: _381  and  _382
REMARK  151  A    between atoms: _381  and  _384
REMARK  152  A    between atoms: _387  and  _389
REMARK  153  A    between atoms: _389  and  _390
REMARK  154  A    between atoms: _389  and  _392
REMARK  155  A    between atoms: _392  and  _393
REMARK  156  A    between atoms: _396  and  _398
REMARK  157  A    between atoms: _398  and  _399
REMARK  158  A    between atoms: _398  and  _401
REMARK  159  A    between atoms: _401  and  _402
REMARK  160  A    between atoms: _407  and  _408
REMARK  161  A    between atoms: _410  and  _412
REMARK  162  A    between atoms: _412  and  _413
REMARK  163  A    between atoms: _412  and  _415
REMARK  164  A    between atoms: _415  and  _416
REMARK  165  A    between atoms: _422  and  _424
REMARK  166  A    between atoms: _424  and  _425
REMARK  167  A    between atoms: _424  and  _427
REMARK  168  A    between atoms: _427  and  _428
REMARK  169  A    between atoms: _428  and  _429
REMARK  170  A    between atoms: _434  and  _436
REMARK  171  A    between atoms: _436  and  _437
REMARK  172  A    between atoms: _436  and  _439
REMARK  173  A    between atoms: _439  and  _440
REMARK  174  A    between atoms: _445  and  _446
REMARK  175  A    between atoms: _448  and  _450
REMARK  176  A    between atoms: _450  and  _451
REMARK  177  A    between atoms: _454  and  _456
REMARK  178  A    between atoms: _456  and  _457
REMARK  179  A    between atoms: _456  and  _459
REMARK  180  A    between atoms: _459  and  _460
REMARK  181  A    between atoms: _466  and  _468
REMARK  182  A    between atoms: _468  and  _469
REMARK  183  A    between atoms: _468  and  _471
REMARK  184  A    between atoms: _471  and  _472
REMARK  185  A    between atoms: _474  and  _476
REMARK  186  A    between atoms: _476  and  _477
REMARK  187  A    between atoms: _476  and  _479
REMARK  188  A    between atoms: _479  and  _480
REMARK  189  A    between atoms: _483  and  _485
REMARK  190  A    between atoms: _485  and  _486
REMARK  191  A    between atoms: _485  and  _488
REMARK  192  A    between atoms: _488  and  _489
REMARK  193  A    between atoms: _493  and  _494
REMARK  194  A    between atoms: _499  and  _501
REMARK  195  A    between atoms: _501  and  _502
REMARK  196  A    between atoms: _505  and  _507
REMARK  197  A    between atoms: _507  and  _508
REMARK  198  A    between atoms: _507  and  _510
REMARK  199  A    between atoms: _510  and  _511
REMARK  200  A    between atoms: _514  and  _516
REMARK  201  A    between atoms: _516  and  _517
REMARK  202  A    between atoms: _516  and  _519
REMARK  203  A    between atoms: _519  and  _520
REMARK  204  A    between atoms: _530  and  _532
REMARK  205  A    between atoms: _532  and  _533
REMARK  206  A    between atoms: _532  and  _535
REMARK  207  A    between atoms: _535  and  _536
REMARK  208  A    between atoms: _536  and  _537
REMARK  209  A    between atoms: _539  and  _541
REMARK  210  A    between atoms: _541  and  _542
REMARK  211  A    between atoms: _541  and  _544
REMARK  212  A    between atoms: _544  and  _545
REMARK  213  A    between atoms: _548  and  _550
REMARK  214  A    between atoms: _550  and  _551
REMARK  215  A    between atoms: _550  and  _553
REMARK  216  A    between atoms: _553  and  _554
REMARK  217  A    between atoms: _557  and  _559
REMARK  218  A    between atoms: _559  and  _560
REMARK  219  A    between atoms: _563  and  _565
REMARK  220  A    between atoms: _565  and  _566
REMARK  221  A    between atoms: _568  and  _570
REMARK  222  A    between atoms: _570  and  _571
REMARK  223  A    between atoms: _570  and  _573
REMARK  224  A    between atoms: _573  and  _574
REMARK  225  A    between atoms: _579  and  _581
REMARK  226  A    between atoms: _581  and  _582
REMARK  227  A    between atoms: _581  and  _584
REMARK  228  A    between atoms: _584  and  _585
REMARK                            x       y       z     vdW  Elec       q    Type
REMARK                         _______ _______ _______ _____ _____    ______ ____
ROOT
ATOM      1  O   HOH     1     -23.858  20.925 -19.974  0.00  0.00    +0.000 OA
ENDROOT
TORSDOF 0
REMARK  Name = ../refined-set-2016/4c1u/4c1u_pocket.pdb
REMARK  228 active torsions:
REMARK  status: ('A' for Active; 'I' for Inactive)
REMARK    1  A    between atoms: _1  and  _3
REMARK    2  A    between atoms: _3  and  _4
REMARK    3  A    between atoms: _3  and  _6
REMARK    4  A    between atoms: _6  and  _7
REMARK    5  A    between atoms: _12  and  _14
REMARK    6  A    between atoms: _14  and  _15
REMARK    7  A    between atoms: _14  and  _17
REMARK    8  A    between atoms: _17  and  _18
REMARK    9  A    between atoms: _23  and  _25
REMARK   10  A    between atoms: _25  and  _26
REMARK   11  A    between atoms: _29  and  _31
REMARK   12  A    between atoms: _31  and  _32
REMARK   13  A    between atoms: _31  and  _34
REMARK   14  A    between atoms: _34  and  _35
REMARK   15  A    between atoms: _37  and  _39
REMARK   16  A    between atoms: _39  and  _40
REMARK   17  A    between atoms: _43  and  _45
REMARK   18  A    between atoms: _45  and  _46
REMARK   19  A    between atoms: _48  and  _50
REMARK   20  A    between atoms: _50  and  _51
REMARK   21  A    between atoms: _50  and  _53
REMARK   22  A    between atoms: _53  and  _54
REMARK   23  A    between atoms: _54  and  _55
REMARK   24  A    between atoms: _55  and  _56
REMARK   25  A    between atoms: _65  and  _67
REMARK   26  A    between atoms: _67  and  _68
REMARK   27  A    between atoms: _67  and  _70
REMARK   28  A    between atoms: _70  and  _71
REMARK   29  A    between atoms: _81  and  _83
REMARK   30  A    between atoms: _83  and  _84
REMARK   31  A    between atoms: _83  and  _86
REMARK   32  A    between atoms: _86  and  _87
REMARK   33  A    between atoms: _90  and  _92
REMARK   34  A    between atoms: _92  and  _93
REMARK   35  A    between atoms: _92  and  _95
REMARK   36  A    between atoms: _95  and  _96
REMARK   37  A    between atoms: _96  and  _97
REMARK   38  A    between atoms: _102  and  _104
REMARK   39  A    between atoms: _104  and  _105
REMARK   40  A    between atoms: _104  and  _107
REMARK   41  A    between atoms: _107  and  _108
REMARK   42  A    between atoms: _113  and  _115
REMARK   43  A    between atoms: _115  and  _116
REMARK   44  A    between atoms: _115  and  _118
REMARK   45  A    between atoms: _118  and  _119
REMARK   46  A    between atoms: _119  and  _120
REMARK   47  A    between atoms: _123  and  _125
REMARK   48  A    between atoms: _125  and  _126
REMARK   49  A    between atoms: _125  and  _128
REMARK   50  A    between atoms: _128  and  _129
REMARK   51  A    between atoms: _135  and  _137
REMARK   52  A    between atoms: _137  and  _138
REMARK   53  A    between atoms: _141  and  _143
REMARK   54  A    between atoms: _143  and  _144
REMARK   55  A    between atoms: _143  and  _146
REMARK   56  A    between atoms: _146  and  _147
REMARK   57  A    between atoms: _147  and  _148
REMARK   58  A    between atoms: _150  and  _152
REMARK   59  A    between atoms: _152  and  _153
REMARK   60  A    between atoms: _152  and  _155
REMARK   61  A    between atoms: _155  and  _156
REMARK   62  A    between atoms: _158  and  _160
REMARK   63  A    between atoms: _160  and  _161
REMARK   64  A    between atoms: _160  and  _163
REMARK   65  A    between atoms: _163  and  _164
REMARK   66  A    between atoms: _167  and  _169
REMARK   67  A    between atoms: _169  and  _170
REMARK   68  A    between atoms: _169  and  _172
REMARK   69  A    between atoms: _172  and  _173
REMARK   70  A    between atoms: _173  and  _174
REMARK   71  A    between atoms: _174  and  _175
REMARK   72  A    between atoms: _175  and  _176
REMARK   73  A    between atoms: _180  and  _182
REMARK   74  A    between atoms: _182  and  _183
REMARK   75  A    between atoms: _182  and  _185
REMARK   76  A    between atoms: _188  and  _190
REMARK   77  A    between atoms: _190  and  _191
REMARK   78  A    between atoms: _190  and  _193
REMARK   79  A    between atoms: _193  and  _194
REMARK   80  A    between atoms: _196  and  _198
REMARK   81  A    between atoms: _198  and  _199
REMARK   82  A    between atoms: _198  and  _201
REMARK   83  A    between atoms: _204  and  _206
REMARK   84  A    between atoms: _206  and  _207
REMARK   85  A    between atoms: _206  and  _209
REMARK   86  A    between atoms: _209  and  _210
REMARK   87  A    between atoms: _210  and  _211
REMARK   88  A    between atoms: _214  and  _216
REMARK   89  A    between atoms: _216  and  _217
REMARK   90  A    between atoms: _216  and  _219
REMARK   91  A    between atoms: _219  and  _220
REMARK   92  A    between atoms: _223  and  _225
REMARK   93  A    between atoms: _225  and  _226
REMARK   94  A    between atoms: _229  and  _231
REMARK   95  A    between atoms: _231  and  _232
REMARK   96  A    between atoms: _231  and  _234
REMARK   97  A    between atoms: _234  and  _235
REMARK   98  A    between atoms: _246  and  _247
REMARK   99  A    between atoms: _252  and  _254
REMARK  100  A    between atoms: _254  and  _255
REMARK  101  A    between atoms: _258  and  _260
REMARK  102  A    between atoms: _260  and  _261
REMARK  103  A    between atoms: _260  and  _263
REMARK  104  A    between atoms: _263  and  _264
REMARK  105  A    between atoms: _269  and  _271
REMARK  106  A    between atoms: _271  and  _272
REMARK  107  A    between atoms: _271  and  _274
REMARK  108  A    between atoms: _274  and  _275
REMARK  109  A    between atoms: _280  and  _281
REMARK  110  A    between atoms: _283  and  _285
REMARK  111  A    between atoms: _285  and  _286
REMARK  112  A    between atoms: _289  and  _291
REMARK  113  A    between atoms: _291  and  _292
REMARK  114  A    between atoms: _291  and  _294
REMARK  115  A    between atoms: _294  and  _295
REMARK  116  A    between atoms: _295  and  _296
REMARK  117  A    between atoms: _301  and  _303
REMARK  118  A    between atoms: _303  and  _304
REMARK  119  A    between atoms: _303  and  _306
REMARK  120  A    between atoms: _306  and  _307
REMARK  121  A    between atoms: _307  and  _308
REMARK  122  A    between atoms: _310  and  _312
REMARK  123  A    between atoms: _312  and  _313
REMARK  124  A    between atoms: _315  and  _317
REMARK  125  A    between atoms: _317  and  _318
REMARK  126  A    between atoms: _321  and  _323
REMARK  127  A    between atoms: _323  and  _324
REMARK  128  A    between atoms: _323  and  _326
REMARK  129  A    between atoms: _326  and  _327
REMARK  130  A    between atoms: _337  and  _339
REMARK  131  A    between atoms: _339  and  _340
REMARK  132  A    between atoms: _339  and  _342
REMARK  133  A    between atoms: _342  and  _343
REMARK  134  A    between atoms: _343  and  _344
REMARK  135  A    between atoms: _347  and  _349
REMARK  136  A    between atoms: _349  and  _350
REMARK  137  A    between atoms: _352  and  _354
REMARK  138  A    between atoms: _354  and  _355
REMARK  139  A    between atoms: _354  and  _357
REMARK  140  A    between atoms: _360  and  _362
REMARK  141  A    between atoms: _362  and  _363
REMARK  142  A    between atoms: _362  and  _365
REMARK  143  A    between atoms: _365  and  _366
REMARK  144  A    between atoms: _366  and  _367
REMARK  145  A    between atoms: _369  and  _371
REMARK  146  A    between atoms: _371  and  _372
REMARK  147  A    between atoms: _374  and  _376
REMARK  148  A    between atoms: _376  and  _377
REMARK  149  A    between atoms: _379  and  _381
REMARK  150  A    between atoms: _381  and  _382
REMARK  151  A    between atoms: _381  and  _384
REMARK  152  A    between atoms: _387  and  _389
REMARK  153  A    between atoms: _389  and  _390
REMARK  154  A    between atoms: _389  and  _392
REMARK  155  A    between atoms: _392  and  _393
REMARK  156  A    between atoms: _396  and  _398
REMARK  157  A    between atoms: _398  and  _399
REMARK  158  A    between atoms: _398  and  _401
REMARK  159  A    between atoms: _401  and  _402
REMARK  160  A    between atoms: _407  and  _408
REMARK  161  A    between atoms: _410  and  _412
REMARK  162  A    between atoms: _412  and  _413
REMARK  163  A    between atoms: _412  and  _415
REMARK  164  A    between atoms: _415  and  _416
REMARK  165  A    between atoms: _422  and  _424
REMARK  166  A    between atoms: _424  and  _425
REMARK  167  A    between atoms: _424  and  _427
REMARK  168  A    between atoms: _427  and  _428
REMARK  169  A    between atoms: _428  and  _429
REMARK  170  A    between atoms: _434  and  _436
REMARK  171  A    between atoms: _436  and  _437
REMARK  172  A    between atoms: _436  and  _439
REMARK  173  A    between atoms: _439  and  _440
REMARK  174  A    between atoms: _445  and  _446
REMARK  175  A    between atoms: _448  and  _450
REMARK  176  A    between atoms: _450  and  _451
REMARK  177  A    between atoms: _454  and  _456
REMARK  178  A    between atoms: _456  and  _457
REMARK  179  A    between atoms: _456  and  _459
REMARK  180  A    between atoms: _459  and  _460
REMARK  181  A    between atoms: _466  and  _468
REMARK  182  A    between atoms: _468  and  _469
REMARK  183  A    between atoms: _468  and  _471
REMARK  184  A    between atoms: _471  and  _472
REMARK  185  A    between atoms: _474  and  _476
REMARK  186  A    between atoms: _476  and  _477
REMARK  187  A    between atoms: _476  and  _479
REMARK  188  A    between atoms: _479  and  _480
REMARK  189  A    between atoms: _483  and  _485
REMARK  190  A    between atoms: _485  and  _486
REMARK  191  A    between atoms: _485  and  _488
REMARK  192  A    between atoms: _488  and  _489
REMARK  193  A    between atoms: _493  and  _494
REMARK  194  A    between atoms: _499  and  _501
REMARK  195  A    between atoms: _501  and  _502
REMARK  196  A    between atoms: _505  and  _507
REMARK  197  A    between atoms: _507  and  _508
REMARK  198  A    between atoms: _507  and  _510
REMARK  199  A    between atoms: _510  and  _511
REMARK  200  A    between atoms: _514  and  _516
REMARK  201  A    between atoms: _516  and  _517
REMARK  202  A    between atoms: _516  and  _519
REMARK  203  A    between atoms: _519  and  _520
REMARK  204  A    between atoms: _530  and  _532
REMARK  205  A    between atoms: _532  and  _533
REMARK  206  A    between atoms: _532  and  _535
REMARK  207  A    between atoms: _535  and  _536
REMARK  208  A    between atoms: _536  and  _537
REMARK  209  A    between atoms: _539  and  _541
REMARK  210  A    between atoms: _541  and  _542
REMARK  211  A    between atoms: _541  and  _544
REMARK  212  A    between atoms: _544  and  _545
REMARK  213  A    between atoms: _548  and  _550
REMARK  214  A    between atoms: _550  and  _551
REMARK  215  A    between atoms: _550  and  _553
REMARK  216  A    between atoms: _553  and  _554
REMARK  217  A    between atoms: _557  and  _559
REMARK  218  A    between atoms: _559  and  _560
REMARK  219  A    between atoms: _563  and  _565
REMARK  220  A    between atoms: _565  and  _566
REMARK  221  A    between atoms: _568  and  _570
REMARK  222  A    between atoms: _570  and  _571
REMARK  223  A    between atoms: _570  and  _573
REMARK  224  A    between atoms: _573  and  _574
REMARK  225  A    between atoms: _579  and  _581
REMARK  226  A    between atoms: _581  and  _582
REMARK  227  A    between atoms: _581  and  _584
REMARK  228  A    between atoms: _584  and  _585
REMARK                            x       y       z     vdW  Elec       q    Type
REMARK                         _______ _______ _______ _____ _____    ______ ____
ROOT
ATOM      1  O   HOH     1     -18.599  14.196 -19.737  0.00  0.00    +0.000 OA
ENDROOT
TORSDOF 0
REMARK  Name = ../refined-set-2016/4c1u/4c1u_pocket.pdb
REMARK  228 active torsions:
REMARK  status: ('A' for Active; 'I' for Inactive)
REMARK    1  A    between atoms: _1  and  _3
REMARK    2  A    between atoms: _3  and  _4
REMARK    3  A    between atoms: _3  and  _6
REMARK    4  A    between atoms: _6  and  _7
REMARK    5  A    between atoms: _12  and  _14
REMARK    6  A    between atoms: _14  and  _15
REMARK    7  A    between atoms: _14  and  _17
REMARK    8  A    between atoms: _17  and  _18
REMARK    9  A    between atoms: _23  and  _25
REMARK   10  A    between atoms: _25  and  _26
REMARK   11  A    between atoms: _29  and  _31
REMARK   12  A    between atoms: _31  and  _32
REMARK   13  A    between atoms: _31  and  _34
REMARK   14  A    between atoms: _34  and  _35
REMARK   15  A    between atoms: _37  and  _39
REMARK   16  A    between atoms: _39  and  _40
REMARK   17  A    between atoms: _43  and  _45
REMARK   18  A    between atoms: _45  and  _46
REMARK   19  A    between atoms: _48  and  _50
REMARK   20  A    between atoms: _50  and  _51
REMARK   21  A    between atoms: _50  and  _53
REMARK   22  A    between atoms: _53  and  _54
REMARK   23  A    between atoms: _54  and  _55
REMARK   24  A    between atoms: _55  and  _56
REMARK   25  A    between atoms: _65  and  _67
REMARK   26  A    between atoms: _67  and  _68
REMARK   27  A    between atoms: _67  and  _70
REMARK   28  A    between atoms: _70  and  _71
REMARK   29  A    between atoms: _81  and  _83
REMARK   30  A    between atoms: _83  and  _84
REMARK   31  A    between atoms: _83  and  _86
REMARK   32  A    between atoms: _86  and  _87
REMARK   33  A    between atoms: _90  and  _92
REMARK   34  A    between atoms: _92  and  _93
REMARK   35  A    between atoms: _92  and  _95
REMARK   36  A    between atoms: _95  and  _96
REMARK   37  A    between atoms: _96  and  _97
REMARK   38  A    between atoms: _102  and  _104
REMARK   39  A    between atoms: _104  and  _105
REMARK   40  A    between atoms: _104  and  _107
REMARK   41  A    between atoms: _107  and  _108
REMARK   42  A    between atoms: _113  and  _115
REMARK   43  A    between atoms: _115  and  _116
REMARK   44  A    between atoms: _115  and  _118
REMARK   45  A    between atoms: _118  and  _119
REMARK   46  A    between atoms: _119  and  _120
REMARK   47  A    between atoms: _123  and  _125
REMARK   48  A    between atoms: _125  and  _126
REMARK   49  A    between atoms: _125  and  _128
REMARK   50  A    between atoms: _128  and  _129
REMARK   51  A    between atoms: _135  and  _137
REMARK   52  A    between atoms: _137  and  _138
REMARK   53  A    between atoms: _141  and  _143
REMARK   54  A    between atoms: _143  and  _144
REMARK   55  A    between atoms: _143  and  _146
REMARK   56  A    between atoms: _146  and  _147
REMARK   57  A    between atoms: _147  and  _148
REMARK   58  A    between atoms: _150  and  _152
REMARK   59  A    between atoms: _152  and  _153
REMARK   60  A    between atoms: _152  and  _155
REMARK   61  A    between atoms: _155  and  _156
REMARK   62  A    between atoms: _158  and  _160
REMARK   63  A    between atoms: _160  and  _161
REMARK   64  A    between atoms: _160  and  _163
REMARK   65  A    between atoms: _163  and  _164
REMARK   66  A    between atoms: _167  and  _169
REMARK   67  A    between atoms: _169  and  _170
REMARK   68  A    between atoms: _169  and  _172
REMARK   69  A    between atoms: _172  and  _173
REMARK   70  A    between atoms: _173  and  _174
REMARK   71  A    between atoms: _174  and  _175
REMARK   72  A    between atoms: _175  and  _176
REMARK   73  A    between atoms: _180  and  _182
REMARK   74  A    between atoms: _182  and  _183
REMARK   75  A    between atoms: _182  and  _185
REMARK   76  A    between atoms: _188  and  _190
REMARK   77  A    between atoms: _190  and  _191
REMARK   78  A    between atoms: _190  and  _193
REMARK   79  A    between atoms: _193  and  _194
REMARK   80  A    between atoms: _196  and  _198
REMARK   81  A    between atoms: _198  and  _199
REMARK   82  A    between atoms: _198  and  _201
REMARK   83  A    between atoms: _204  and  _206
REMARK   84  A    between atoms: _206  and  _207
REMARK   85  A    between atoms: _206  and  _209
REMARK   86  A    between atoms: _209  and  _210
REMARK   87  A    between atoms: _210  and  _211
REMARK   88  A    between atoms: _214  and  _216
REMARK   89  A    between atoms: _216  and  _217
REMARK   90  A    between atoms: _216  and  _219
REMARK   91  A    between atoms: _219  and  _220
REMARK   92  A    between atoms: _223  and  _225
REMARK   93  A    between atoms: _225  and  _226
REMARK   94  A    between atoms: _229  and  _231
REMARK   95  A    between atoms: _231  and  _232
REMARK   96  A    between atoms: _231  and  _234
REMARK   97  A    between atoms: _234  and  _235
REMARK   98  A    between atoms: _246  and  _247
REMARK   99  A    between atoms: _252  and  _254
REMARK  100  A    between atoms: _254  and  _255
REMARK  101  A    between atoms: _258  and  _260
REMARK  102  A    between atoms: _260  and  _261
REMARK  103  A    between atoms: _260  and  _263
REMARK  104  A    between atoms: _263  and  _264
REMARK  105  A    between atoms: _269  and  _271
REMARK  106  A    between atoms: _271  and  _272
REMARK  107  A    between atoms: _271  and  _274
REMARK  108  A    between atoms: _274  and  _275
REMARK  109  A    between atoms: _280  and  _281
REMARK  110  A    between atoms: _283  and  _285
REMARK  111  A    between atoms: _285  and  _286
REMARK  112  A    between atoms: _289  and  _291
REMARK  113  A    between atoms: _291  and  _292
REMARK  114  A    between atoms: _291  and  _294
REMARK  115  A    between atoms: _294  and  _295
REMARK  116  A    between atoms: _295  and  _296
REMARK  117  A    between atoms: _301  and  _303
REMARK  118  A    between atoms: _303  and  _304
REMARK  119  A    between atoms: _303  and  _306
REMARK  120  A    between atoms: _306  and  _307
REMARK  121  A    between atoms: _307  and  _308
REMARK  122  A    between atoms: _310  and  _312
REMARK  123  A    between atoms: _312  and  _313
REMARK  124  A    between atoms: _315  and  _317
REMARK  125  A    between atoms: _317  and  _318
REMARK  126  A    between atoms: _321  and  _323
REMARK  127  A    between atoms: _323  and  _324
REMARK  128  A    between atoms: _323  and  _326
REMARK  129  A    between atoms: _326  and  _327
REMARK  130  A    between atoms: _337  and  _339
REMARK  131  A    between atoms: _339  and  _340
REMARK  132  A    between atoms: _339  and  _342
REMARK  133  A    between atoms: _342  and  _343
REMARK  134  A    between atoms: _343  and  _344
REMARK  135  A    between atoms: _347  and  _349
REMARK  136  A    between atoms: _349  and  _350
REMARK  137  A    between atoms: _352  and  _354
REMARK  138  A    between atoms: _354  and  _355
REMARK  139  A    between atoms: _354  and  _357
REMARK  140  A    between atoms: _360  and  _362
REMARK  141  A    between atoms: _362  and  _363
REMARK  142  A    between atoms: _362  and  _365
REMARK  143  A    between atoms: _365  and  _366
REMARK  144  A    between atoms: _366  and  _367
REMARK  145  A    between atoms: _369  and  _371
REMARK  146  A    between atoms: _371  and  _372
REMARK  147  A    between atoms: _374  and  _376
REMARK  148  A    between atoms: _376  and  _377
REMARK  149  A    between atoms: _379  and  _381
REMARK  150  A    between atoms: _381  and  _382
REMARK  151  A    between atoms: _381  and  _384
REMARK  152  A    between atoms: _387  and  _389
REMARK  153  A    between atoms: _389  and  _390
REMARK  154  A    between atoms: _389  and  _392
REMARK  155  A    between atoms: _392  and  _393
REMARK  156  A    between atoms: _396  and  _398
REMARK  157  A    between atoms: _398  and  _399
REMARK  158  A    between atoms: _398  and  _401
REMARK  159  A    between atoms: _401  and  _402
REMARK  160  A    between atoms: _407  and  _408
REMARK  161  A    between atoms: _410  and  _412
REMARK  162  A    between atoms: _412  and  _413
REMARK  163  A    between atoms: _412  and  _415
REMARK  164  A    between atoms: _415  and  _416
REMARK  165  A    between atoms: _422  and  _424
REMARK  166  A    between atoms: _424  and  _425
REMARK  167  A    between atoms: _424  and  _427
REMARK  168  A    between atoms: _427  and  _428
REMARK  169  A    between atoms: _428  and  _429
REMARK  170  A    between atoms: _434  and  _436
REMARK  171  A    between atoms: _436  and  _437
REMARK  172  A    between atoms: _436  and  _439
REMARK  173  A    between atoms: _439  and  _440
REMARK  174  A    between atoms: _445  and  _446
REMARK  175  A    between atoms: _448  and  _450
REMARK  176  A    between atoms: _450  and  _451
REMARK  177  A    between atoms: _454  and  _456
REMARK  178  A    between atoms: _456  and  _457
REMARK  179  A    between atoms: _456  and  _459
REMARK  180  A    between atoms: _459  and  _460
REMARK  181  A    between atoms: _466  and  _468
REMARK  182  A    between atoms: _468  and  _469
REMARK  183  A    between atoms: _468  and  _471
REMARK  184  A    between atoms: _471  and  _472
REMARK  185  A    between atoms: _474  and  _476
REMARK  186  A    between atoms: _476  and  _477
REMARK  187  A    between atoms: _476  and  _479
REMARK  188  A    between atoms: _479  and  _480
REMARK  189  A    between atoms: _483  and  _485
REMARK  190  A    between atoms: _485  and  _486
REMARK  191  A    between atoms: _485  and  _488
REMARK  192  A    between atoms: _488  and  _489
REMARK  193  A    between atoms: _493  and  _494
REMARK  194  A    between atoms: _499  and  _501
REMARK  195  A    between atoms: _501  and  _502
REMARK  196  A    between atoms: _505  and  _507
REMARK  197  A    between atoms: _507  and  _508
REMARK  198  A    between atoms: _507  and  _510
REMARK  199  A    between atoms: _510  and  _511
REMARK  200  A    between atoms: _514  and  _516
REMARK  201  A    between atoms: _516  and  _517
REMARK  202  A    between atoms: _516  and  _519
REMARK  203  A    between atoms: _519  and  _520
REMARK  204  A    between atoms: _530  and  _532
REMARK  205  A    between atoms: _532  and  _533
REMARK  206  A    between atoms: _532  and  _535
REMARK  207  A    between atoms: _535  and  _536
REMARK  208  A    between atoms: _536  and  _537
REMARK  209  A    between atoms: _539  and  _541
REMARK  210  A    between atoms: _541  and  _542
REMARK  211  A    between atoms: _541  and  _544
REMARK  212  A    between atoms: _544  and  _545
REMARK  213  A    between atoms: _548  and  _550
REMARK  214  A    between atoms: _550  and  _551
REMARK  215  A    between atoms: _550  and  _553
REMARK  216  A    between atoms: _553  and  _554
REMARK  217  A    between atoms: _557  and  _559
REMARK  218  A    between atoms: _559  and  _560
REMARK  219  A    between atoms: _563  and  _565
REMARK  220  A    between atoms: _565  and  _566
REMARK  221  A    between atoms: _568  and  _570
REMARK  222  A    between atoms: _570  and  _571
REMARK  223  A    between atoms: _570  and  _573
REMARK  224  A    between atoms: _573  and  _574
REMARK  225  A    between atoms: _579  and  _581
REMARK  226  A    between atoms: _581  and  _582
REMARK  227  A    between atoms: _581  and  _584
REMARK  228  A    between atoms: _584  and  _585
REMARK                            x       y       z     vdW  Elec       q    Type
REMARK                         _______ _______ _______ _____ _____    ______ ____
ROOT
ATOM      1  O   HOH     1     -14.053  20.865 -16.834  0.00  0.00    +0.000 OA
ENDROOT
TORSDOF 0
REMARK  Name = ../refined-set-2016/4c1u/4c1u_pocket.pdb
REMARK  228 active torsions:
REMARK  status: ('A' for Active; 'I' for Inactive)
REMARK    1  A    between atoms: _1  and  _3
REMARK    2  A    between atoms: _3  and  _4
REMARK    3  A    between atoms: _3  and  _6
REMARK    4  A    between atoms: _6  and  _7
REMARK    5  A    between atoms: _12  and  _14
REMARK    6  A    between atoms: _14  and  _15
REMARK    7  A    between atoms: _14  and  _17
REMARK    8  A    between atoms: _17  and  _18
REMARK    9  A    between atoms: _23  and  _25
REMARK   10  A    between atoms: _25  and  _26
REMARK   11  A    between atoms: _29  and  _31
REMARK   12  A    between atoms: _31  and  _32
REMARK   13  A    between atoms: _31  and  _34
REMARK   14  A    between atoms: _34  and  _35
REMARK   15  A    between atoms: _37  and  _39
REMARK   16  A    between atoms: _39  and  _40
REMARK   17  A    between atoms: _43  and  _45
REMARK   18  A    between atoms: _45  and  _46
REMARK   19  A    between atoms: _48  and  _50
REMARK   20  A    between atoms: _50  and  _51
REMARK   21  A    between atoms: _50  and  _53
REMARK   22  A    between atoms: _53  and  _54
REMARK   23  A    between atoms: _54  and  _55
REMARK   24  A    between atoms: _55  and  _56
REMARK   25  A    between atoms: _65  and  _67
REMARK   26  A    between atoms: _67  and  _68
REMARK   27  A    between atoms: _67  and  _70
REMARK   28  A    between atoms: _70  and  _71
REMARK   29  A    between atoms: _81  and  _83
REMARK   30  A    between atoms: _83  and  _84
REMARK   31  A    between atoms: _83  and  _86
REMARK   32  A    between atoms: _86  and  _87
REMARK   33  A    between atoms: _90  and  _92
REMARK   34  A    between atoms: _92  and  _93
REMARK   35  A    between atoms: _92  and  _95
REMARK   36  A    between atoms: _95  and  _96
REMARK   37  A    between atoms: _96  and  _97
REMARK   38  A    between atoms: _102  and  _104
REMARK   39  A    between atoms: _104  and  _105
REMARK   40  A    between atoms: _104  and  _107
REMARK   41  A    between atoms: _107  and  _108
REMARK   42  A    between atoms: _113  and  _115
REMARK   43  A    between atoms: _115  and  _116
REMARK   44  A    between atoms: _115  and  _118
REMARK   45  A    between atoms: _118  and  _119
REMARK   46  A    between atoms: _119  and  _120
REMARK   47  A    between atoms: _123  and  _125
REMARK   48  A    between atoms: _125  and  _126
REMARK   49  A    between atoms: _125  and  _128
REMARK   50  A    between atoms: _128  and  _129
REMARK   51  A    between atoms: _135  and  _137
REMARK   52  A    between atoms: _137  and  _138
REMARK   53  A    between atoms: _141  and  _143
REMARK   54  A    between atoms: _143  and  _144
REMARK   55  A    between atoms: _143  and  _146
REMARK   56  A    between atoms: _146  and  _147
REMARK   57  A    between atoms: _147  and  _148
REMARK   58  A    between atoms: _150  and  _152
REMARK   59  A    between atoms: _152  and  _153
REMARK   60  A    between atoms: _152  and  _155
REMARK   61  A    between atoms: _155  and  _156
REMARK   62  A    between atoms: _158  and  _160
REMARK   63  A    between atoms: _160  and  _161
REMARK   64  A    between atoms: _160  and  _163
REMARK   65  A    between atoms: _163  and  _164
REMARK   66  A    between atoms: _167  and  _169
REMARK   67  A    between atoms: _169  and  _170
REMARK   68  A    between atoms: _169  and  _172
REMARK   69  A    between atoms: _172  and  _173
REMARK   70  A    between atoms: _173  and  _174
REMARK   71  A    between atoms: _174  and  _175
REMARK   72  A    between atoms: _175  and  _176
REMARK   73  A    between atoms: _180  and  _182
REMARK   74  A    between atoms: _182  and  _183
REMARK   75  A    between atoms: _182  and  _185
REMARK   76  A    between atoms: _188  and  _190
REMARK   77  A    between atoms: _190  and  _191
REMARK   78  A    between atoms: _190  and  _193
REMARK   79  A    between atoms: _193  and  _194
REMARK   80  A    between atoms: _196  and  _198
REMARK   81  A    between atoms: _198  and  _199
REMARK   82  A    between atoms: _198  and  _201
REMARK   83  A    between atoms: _204  and  _206
REMARK   84  A    between atoms: _206  and  _207
REMARK   85  A    between atoms: _206  and  _209
REMARK   86  A    between atoms: _209  and  _210
REMARK   87  A    between atoms: _210  and  _211
REMARK   88  A    between atoms: _214  and  _216
REMARK   89  A    between atoms: _216  and  _217
REMARK   90  A    between atoms: _216  and  _219
REMARK   91  A    between atoms: _219  and  _220
REMARK   92  A    between atoms: _223  and  _225
REMARK   93  A    between atoms: _225  and  _226
REMARK   94  A    between atoms: _229  and  _231
REMARK   95  A    between atoms: _231  and  _232
REMARK   96  A    between atoms: _231  and  _234
REMARK   97  A    between atoms: _234  and  _235
REMARK   98  A    between atoms: _246  and  _247
REMARK   99  A    between atoms: _252  and  _254
REMARK  100  A    between atoms: _254  and  _255
REMARK  101  A    between atoms: _258  and  _260
REMARK  102  A    between atoms: _260  and  _261
REMARK  103  A    between atoms: _260  and  _263
REMARK  104  A    between atoms: _263  and  _264
REMARK  105  A    between atoms: _269  and  _271
REMARK  106  A    between atoms: _271  and  _272
REMARK  107  A    between atoms: _271  and  _274
REMARK  108  A    between atoms: _274  and  _275
REMARK  109  A    between atoms: _280  and  _281
REMARK  110  A    between atoms: _283  and  _285
REMARK  111  A    between atoms: _285  and  _286
REMARK  112  A    between atoms: _289  and  _291
REMARK  113  A    between atoms: _291  and  _292
REMARK  114  A    between atoms: _291  and  _294
REMARK  115  A    between atoms: _294  and  _295
REMARK  116  A    between atoms: _295  and  _296
REMARK  117  A    between atoms: _301  and  _303
REMARK  118  A    between atoms: _303  and  _304
REMARK  119  A    between atoms: _303  and  _306
REMARK  120  A    between atoms: _306  and  _307
REMARK  121  A    between atoms: _307  and  _308
REMARK  122  A    between atoms: _310  and  _312
REMARK  123  A    between atoms: _312  and  _313
REMARK  124  A    between atoms: _315  and  _317
REMARK  125  A    between atoms: _317  and  _318
REMARK  126  A    between atoms: _321  and  _323
REMARK  127  A    between atoms: _323  and  _324
REMARK  128  A    between atoms: _323  and  _326
REMARK  129  A    between atoms: _326  and  _327
REMARK  130  A    between atoms: _337  and  _339
REMARK  131  A    between atoms: _339  and  _340
REMARK  132  A    between atoms: _339  and  _342
REMARK  133  A    between atoms: _342  and  _343
REMARK  134  A    between atoms: _343  and  _344
REMARK  135  A    between atoms: _347  and  _349
REMARK  136  A    between atoms: _349  and  _350
REMARK  137  A    between atoms: _352  and  _354
REMARK  138  A    between atoms: _354  and  _355
REMARK  139  A    between atoms: _354  and  _357
REMARK  140  A    between atoms: _360  and  _362
REMARK  141  A    between atoms: _362  and  _363
REMARK  142  A    between atoms: _362  and  _365
REMARK  143  A    between atoms: _365  and  _366
REMARK  144  A    between atoms: _366  and  _367
REMARK  145  A    between atoms: _369  and  _371
REMARK  146  A    between atoms: _371  and  _372
REMARK  147  A    between atoms: _374  and  _376
REMARK  148  A    between atoms: _376  and  _377
REMARK  149  A    between atoms: _379  and  _381
REMARK  150  A    between atoms: _381  and  _382
REMARK  151  A    between atoms: _381  and  _384
REMARK  152  A    between atoms: _387  and  _389
REMARK  153  A    between atoms: _389  and  _390
REMARK  154  A    between atoms: _389  and  _392
REMARK  155  A    between atoms: _392  and  _393
REMARK  156  A    between atoms: _396  and  _398
REMARK  157  A    between atoms: _398  and  _399
REMARK  158  A    between atoms: _398  and  _401
REMARK  159  A    between atoms: _401  and  _402
REMARK  160  A    between atoms: _407  and  _408
REMARK  161  A    between atoms: _410  and  _412
REMARK  162  A    between atoms: _412  and  _413
REMARK  163  A    between atoms: _412  and  _415
REMARK  164  A    between atoms: _415  and  _416
REMARK  165  A    between atoms: _422  and  _424
REMARK  166  A    between atoms: _424  and  _425
REMARK  167  A    between atoms: _424  and  _427
REMARK  168  A    between atoms: _427  and  _428
REMARK  169  A    between atoms: _428  and  _429
REMARK  170  A    between atoms: _434  and  _436
REMARK  171  A    between atoms: _436  and  _437
REMARK  172  A    between atoms: _436  and  _439
REMARK  173  A    between atoms: _439  and  _440
REMARK  174  A    between atoms: _445  and  _446
REMARK  175  A    between atoms: _448  and  _450
REMARK  176  A    between atoms: _450  and  _451
REMARK  177  A    between atoms: _454  and  _456
REMARK  178  A    between atoms: _456  and  _457
REMARK  179  A    between atoms: _456  and  _459
REMARK  180  A    between atoms: _459  and  _460
REMARK  181  A    between atoms: _466  and  _468
REMARK  182  A    between atoms: _468  and  _469
REMARK  183  A    between atoms: _468  and  _471
REMARK  184  A    between atoms: _471  and  _472
REMARK  185  A    between atoms: _474  and  _476
REMARK  186  A    between atoms: _476  and  _477
REMARK  187  A    between atoms: _476  and  _479
REMARK  188  A    between atoms: _479  and  _480
REMARK  189  A    between atoms: _483  and  _485
REMARK  190  A    between atoms: _485  and  _486
REMARK  191  A    between atoms: _485  and  _488
REMARK  192  A    between atoms: _488  and  _489
REMARK  193  A    between atoms: _493  and  _494
REMARK  194  A    between atoms: _499  and  _501
REMARK  195  A    between atoms: _501  and  _502
REMARK  196  A    between atoms: _505  and  _507
REMARK  197  A    between atoms: _507  and  _508
REMARK  198  A    between atoms: _507  and  _510
REMARK  199  A    between atoms: _510  and  _511
REMARK  200  A    between atoms: _514  and  _516
REMARK  201  A    between atoms: _516  and  _517
REMARK  202  A    between atoms: _516  and  _519
REMARK  203  A    between atoms: _519  and  _520
REMARK  204  A    between atoms: _530  and  _532
REMARK  205  A    between atoms: _532  and  _533
REMARK  206  A    between atoms: _532  and  _535
REMARK  207  A    between atoms: _535  and  _536
REMARK  208  A    between atoms: _536  and  _537
REMARK  209  A    between atoms: _539  and  _541
REMARK  210  A    between atoms: _541  and  _542
REMARK  211  A    between atoms: _541  and  _544
REMARK  212  A    between atoms: _544  and  _545
REMARK  213  A    between atoms: _548  and  _550
REMARK  214  A    between atoms: _550  and  _551
REMARK  215  A    between atoms: _550  and  _553
REMARK  216  A    between atoms: _553  and  _554
REMARK  217  A    between atoms: _557  and  _559
REMARK  218  A    between atoms: _559  and  _560
REMARK  219  A    between atoms: _563  and  _565
REMARK  220  A    between atoms: _565  and  _566
REMARK  221  A    between atoms: _568  and  _570
REMARK  222  A    between atoms: _570  and  _571
REMARK  223  A    between atoms: _570  and  _573
REMARK  224  A    between atoms: _573  and  _574
REMARK  225  A    between atoms: _579  and  _581
REMARK  226  A    between atoms: _581  and  _582
REMARK  227  A    between atoms: _581  and  _584
REMARK  228  A    between atoms: _584  and  _585
REMARK                            x       y       z     vdW  Elec       q    Type
REMARK                         _______ _______ _______ _____ _____    ______ ____
ROOT
ATOM      1  O   HOH     1      -9.045  20.224 -16.443  0.00  0.00    +0.000 OA
ENDROOT
TORSDOF 0
REMARK  Name = ../refined-set-2016/4c1u/4c1u_pocket.pdb
REMARK  228 active torsions:
REMARK  status: ('A' for Active; 'I' for Inactive)
REMARK    1  A    between atoms: _1  and  _3
REMARK    2  A    between atoms: _3  and  _4
REMARK    3  A    between atoms: _3  and  _6
REMARK    4  A    between atoms: _6  and  _7
REMARK    5  A    between atoms: _12  and  _14
REMARK    6  A    between atoms: _14  and  _15
REMARK    7  A    between atoms: _14  and  _17
REMARK    8  A    between atoms: _17  and  _18
REMARK    9  A    between atoms: _23  and  _25
REMARK   10  A    between atoms: _25  and  _26
REMARK   11  A    between atoms: _29  and  _31
REMARK   12  A    between atoms: _31  and  _32
REMARK   13  A    between atoms: _31  and  _34
REMARK   14  A    between atoms: _34  and  _35
REMARK   15  A    between atoms: _37  and  _39
REMARK   16  A    between atoms: _39  and  _40
REMARK   17  A    between atoms: _43  and  _45
REMARK   18  A    between atoms: _45  and  _46
REMARK   19  A    between atoms: _48  and  _50
REMARK   20  A    between atoms: _50  and  _51
REMARK   21  A    between atoms: _50  and  _53
REMARK   22  A    between atoms: _53  and  _54
REMARK   23  A    between atoms: _54  and  _55
REMARK   24  A    between atoms: _55  and  _56
REMARK   25  A    between atoms: _65  and  _67
REMARK   26  A    between atoms: _67  and  _68
REMARK   27  A    between atoms: _67  and  _70
REMARK   28  A    between atoms: _70  and  _71
REMARK   29  A    between atoms: _81  and  _83
REMARK   30  A    between atoms: _83  and  _84
REMARK   31  A    between atoms: _83  and  _86
REMARK   32  A    between atoms: _86  and  _87
REMARK   33  A    between atoms: _90  and  _92
REMARK   34  A    between atoms: _92  and  _93
REMARK   35  A    between atoms: _92  and  _95
REMARK   36  A    between atoms: _95  and  _96
REMARK   37  A    between atoms: _96  and  _97
REMARK   38  A    between atoms: _102  and  _104
REMARK   39  A    between atoms: _104  and  _105
REMARK   40  A    between atoms: _104  and  _107
REMARK   41  A    between atoms: _107  and  _108
REMARK   42  A    between atoms: _113  and  _115
REMARK   43  A    between atoms: _115  and  _116
REMARK   44  A    between atoms: _115  and  _118
REMARK   45  A    between atoms: _118  and  _119
REMARK   46  A    between atoms: _119  and  _120
REMARK   47  A    between atoms: _123  and  _125
REMARK   48  A    between atoms: _125  and  _126
REMARK   49  A    between atoms: _125  and  _128
REMARK   50  A    between atoms: _128  and  _129
REMARK   51  A    between atoms: _135  and  _137
REMARK   52  A    between atoms: _137  and  _138
REMARK   53  A    between atoms: _141  and  _143
REMARK   54  A    between atoms: _143  and  _144
REMARK   55  A    between atoms: _143  and  _146
REMARK   56  A    between atoms: _146  and  _147
REMARK   57  A    between atoms: _147  and  _148
REMARK   58  A    between atoms: _150  and  _152
REMARK   59  A    between atoms: _152  and  _153
REMARK   60  A    between atoms: _152  and  _155
REMARK   61  A    between atoms: _155  and  _156
REMARK   62  A    between atoms: _158  and  _160
REMARK   63  A    between atoms: _160  and  _161
REMARK   64  A    between atoms: _160  and  _163
REMARK   65  A    between atoms: _163  and  _164
REMARK   66  A    between atoms: _167  and  _169
REMARK   67  A    between atoms: _169  and  _170
REMARK   68  A    between atoms: _169  and  _172
REMARK   69  A    between atoms: _172  and  _173
REMARK   70  A    between atoms: _173  and  _174
REMARK   71  A    between atoms: _174  and  _175
REMARK   72  A    between atoms: _175  and  _176
REMARK   73  A    between atoms: _180  and  _182
REMARK   74  A    between atoms: _182  and  _183
REMARK   75  A    between atoms: _182  and  _185
REMARK   76  A    between atoms: _188  and  _190
REMARK   77  A    between atoms: _190  and  _191
REMARK   78  A    between atoms: _190  and  _193
REMARK   79  A    between atoms: _193  and  _194
REMARK   80  A    between atoms: _196  and  _198
REMARK   81  A    between atoms: _198  and  _199
REMARK   82  A    between atoms: _198  and  _201
REMARK   83  A    between atoms: _204  and  _206
REMARK   84  A    between atoms: _206  and  _207
REMARK   85  A    between atoms: _206  and  _209
REMARK   86  A    between atoms: _209  and  _210
REMARK   87  A    between atoms: _210  and  _211
REMARK   88  A    between atoms: _214  and  _216
REMARK   89  A    between atoms: _216  and  _217
REMARK   90  A    between atoms: _216  and  _219
REMARK   91  A    between atoms: _219  and  _220
REMARK   92  A    between atoms: _223  and  _225
REMARK   93  A    between atoms: _225  and  _226
REMARK   94  A    between atoms: _229  and  _231
REMARK   95  A    between atoms: _231  and  _232
REMARK   96  A    between atoms: _231  and  _234
REMARK   97  A    between atoms: _234  and  _235
REMARK   98  A    between atoms: _246  and  _247
REMARK   99  A    between atoms: _252  and  _254
REMARK  100  A    between atoms: _254  and  _255
REMARK  101  A    between atoms: _258  and  _260
REMARK  102  A    between atoms: _260  and  _261
REMARK  103  A    between atoms: _260  and  _263
REMARK  104  A    between atoms: _263  and  _264
REMARK  105  A    between atoms: _269  and  _271
REMARK  106  A    between atoms: _271  and  _272
REMARK  107  A    between atoms: _271  and  _274
REMARK  108  A    between atoms: _274  and  _275
REMARK  109  A    between atoms: _280  and  _281
REMARK  110  A    between atoms: _283  and  _285
REMARK  111  A    between atoms: _285  and  _286
REMARK  112  A    between atoms: _289  and  _291
REMARK  113  A    between atoms: _291  and  _292
REMARK  114  A    between atoms: _291  and  _294
REMARK  115  A    between atoms: _294  and  _295
REMARK  116  A    between atoms: _295  and  _296
REMARK  117  A    between atoms: _301  and  _303
REMARK  118  A    between atoms: _303  and  _304
REMARK  119  A    between atoms: _303  and  _306
REMARK  120  A    between atoms: _306  and  _307
REMARK  121  A    between atoms: _307  and  _308
REMARK  122  A    between atoms: _310  and  _312
REMARK  123  A    between atoms: _312  and  _313
REMARK  124  A    between atoms: _315  and  _317
REMARK  125  A    between atoms: _317  and  _318
REMARK  126  A    between atoms: _321  and  _323
REMARK  127  A    between atoms: _323  and  _324
REMARK  128  A    between atoms: _323  and  _326
REMARK  129  A    between atoms: _326  and  _327
REMARK  130  A    between atoms: _337  and  _339
REMARK  131  A    between atoms: _339  and  _340
REMARK  132  A    between atoms: _339  and  _342
REMARK  133  A    between atoms: _342  and  _343
REMARK  134  A    between atoms: _343  and  _344
REMARK  135  A    between atoms: _347  and  _349
REMARK  136  A    between atoms: _349  and  _350
REMARK  137  A    between atoms: _352  and  _354
REMARK  138  A    between atoms: _354  and  _355
REMARK  139  A    between atoms: _354  and  _357
REMARK  140  A    between atoms: _360  and  _362
REMARK  141  A    between atoms: _362  and  _363
REMARK  142  A    between atoms: _362  and  _365
REMARK  143  A    between atoms: _365  and  _366
REMARK  144  A    between atoms: _366  and  _367
REMARK  145  A    between atoms: _369  and  _371
REMARK  146  A    between atoms: _371  and  _372
REMARK  147  A    between atoms: _374  and  _376
REMARK  148  A    between atoms: _376  and  _377
REMARK  149  A    between atoms: _379  and  _381
REMARK  150  A    between atoms: _381  and  _382
REMARK  151  A    between atoms: _381  and  _384
REMARK  152  A    between atoms: _387  and  _389
REMARK  153  A    between atoms: _389  and  _390
REMARK  154  A    between atoms: _389  and  _392
REMARK  155  A    between atoms: _392  and  _393
REMARK  156  A    between atoms: _396  and  _398
REMARK  157  A    between atoms: _398  and  _399
REMARK  158  A    between atoms: _398  and  _401
REMARK  159  A    between atoms: _401  and  _402
REMARK  160  A    between atoms: _407  and  _408
REMARK  161  A    between atoms: _410  and  _412
REMARK  162  A    between atoms: _412  and  _413
REMARK  163  A    between atoms: _412  and  _415
REMARK  164  A    between atoms: _415  and  _416
REMARK  165  A    between atoms: _422  and  _424
REMARK  166  A    between atoms: _424  and  _425
REMARK  167  A    between atoms: _424  and  _427
REMARK  168  A    between atoms: _427  and  _428
REMARK  169  A    between atoms: _428  and  _429
REMARK  170  A    between atoms: _434  and  _436
REMARK  171  A    between atoms: _436  and  _437
REMARK  172  A    between atoms: _436  and  _439
REMARK  173  A    between atoms: _439  and  _440
REMARK  174  A    between atoms: _445  and  _446
REMARK  175  A    between atoms: _448  and  _450
REMARK  176  A    between atoms: _450  and  _451
REMARK  177  A    between atoms: _454  and  _456
REMARK  178  A    between atoms: _456  and  _457
REMARK  179  A    between atoms: _456  and  _459
REMARK  180  A    between atoms: _459  and  _460
REMARK  181  A    between atoms: _466  and  _468
REMARK  182  A    between atoms: _468  and  _469
REMARK  183  A    between atoms: _468  and  _471
REMARK  184  A    between atoms: _471  and  _472
REMARK  185  A    between atoms: _474  and  _476
REMARK  186  A    between atoms: _476  and  _477
REMARK  187  A    between atoms: _476  and  _479
REMARK  188  A    between atoms: _479  and  _480
REMARK  189  A    between atoms: _483  and  _485
REMARK  190  A    between atoms: _485  and  _486
REMARK  191  A    between atoms: _485  and  _488
REMARK  192  A    between atoms: _488  and  _489
REMARK  193  A    between atoms: _493  and  _494
REMARK  194  A    between atoms: _499  and  _501
REMARK  195  A    between atoms: _501  and  _502
REMARK  196  A    between atoms: _505  and  _507
REMARK  197  A    between atoms: _507  and  _508
REMARK  198  A    between atoms: _507  and  _510
REMARK  199  A    between atoms: _510  and  _511
REMARK  200  A    between atoms: _514  and  _516
REMARK  201  A    between atoms: _516  and  _517
REMARK  202  A    between atoms: _516  and  _519
REMARK  203  A    between atoms: _519  and  _520
REMARK  204  A    between atoms: _530  and  _532
REMARK  205  A    between atoms: _532  and  _533
REMARK  206  A    between atoms: _532  and  _535
REMARK  207  A    between atoms: _535  and  _536
REMARK  208  A    between atoms: _536  and  _537
REMARK  209  A    between atoms: _539  and  _541
REMARK  210  A    between atoms: _541  and  _542
REMARK  211  A    between atoms: _541  and  _544
REMARK  212  A    between atoms: _544  and  _545
REMARK  213  A    between atoms: _548  and  _550
REMARK  214  A    between atoms: _550  and  _551
REMARK  215  A    between atoms: _550  and  _553
REMARK  216  A    between atoms: _553  and  _554
REMARK  217  A    between atoms: _557  and  _559
REMARK  218  A    between atoms: _559  and  _560
REMARK  219  A    between atoms: _563  and  _565
REMARK  220  A    between atoms: _565  and  _566
REMARK  221  A    between atoms: _568  and  _570
REMARK  222  A    between atoms: _570  and  _571
REMARK  223  A    between atoms: _570  and  _573
REMARK  224  A    between atoms: _573  and  _574
REMARK  225  A    between atoms: _579  and  _581
REMARK  226  A    between atoms: _581  and  _582
REMARK  227  A    between atoms: _581  and  _584
REMARK  228  A    between atoms: _584  and  _585
REMARK                            x       y       z     vdW  Elec       q    Type
REMARK                         _______ _______ _______ _____ _____    ______ ____
ROOT
ATOM      1  O   HOH     1     -12.581  22.367  -3.964  0.00  0.00    +0.000 OA
ENDROOT
TORSDOF 0
REMARK  Name = ../refined-set-2016/4c1u/4c1u_pocket.pdb
REMARK  228 active torsions:
REMARK  status: ('A' for Active; 'I' for Inactive)
REMARK    1  A    between atoms: _1  and  _3
REMARK    2  A    between atoms: _3  and  _4
REMARK    3  A    between atoms: _3  and  _6
REMARK    4  A    between atoms: _6  and  _7
REMARK    5  A    between atoms: _12  and  _14
REMARK    6  A    between atoms: _14  and  _15
REMARK    7  A    between atoms: _14  and  _17
REMARK    8  A    between atoms: _17  and  _18
REMARK    9  A    between atoms: _23  and  _25
REMARK   10  A    between atoms: _25  and  _26
REMARK   11  A    between atoms: _29  and  _31
REMARK   12  A    between atoms: _31  and  _32
REMARK   13  A    between atoms: _31  and  _34
REMARK   14  A    between atoms: _34  and  _35
REMARK   15  A    between atoms: _37  and  _39
REMARK   16  A    between atoms: _39  and  _40
REMARK   17  A    between atoms: _43  and  _45
REMARK   18  A    between atoms: _45  and  _46
REMARK   19  A    between atoms: _48  and  _50
REMARK   20  A    between atoms: _50  and  _51
REMARK   21  A    between atoms: _50  and  _53
REMARK   22  A    between atoms: _53  and  _54
REMARK   23  A    between atoms: _54  and  _55
REMARK   24  A    between atoms: _55  and  _56
REMARK   25  A    between atoms: _65  and  _67
REMARK   26  A    between atoms: _67  and  _68
REMARK   27  A    between atoms: _67  and  _70
REMARK   28  A    between atoms: _70  and  _71
REMARK   29  A    between atoms: _81  and  _83
REMARK   30  A    between atoms: _83  and  _84
REMARK   31  A    between atoms: _83  and  _86
REMARK   32  A    between atoms: _86  and  _87
REMARK   33  A    between atoms: _90  and  _92
REMARK   34  A    between atoms: _92  and  _93
REMARK   35  A    between atoms: _92  and  _95
REMARK   36  A    between atoms: _95  and  _96
REMARK   37  A    between atoms: _96  and  _97
REMARK   38  A    between atoms: _102  and  _104
REMARK   39  A    between atoms: _104  and  _105
REMARK   40  A    between atoms: _104  and  _107
REMARK   41  A    between atoms: _107  and  _108
REMARK   42  A    between atoms: _113  and  _115
REMARK   43  A    between atoms: _115  and  _116
REMARK   44  A    between atoms: _115  and  _118
REMARK   45  A    between atoms: _118  and  _119
REMARK   46  A    between atoms: _119  and  _120
REMARK   47  A    between atoms: _123  and  _125
REMARK   48  A    between atoms: _125  and  _126
REMARK   49  A    between atoms: _125  and  _128
REMARK   50  A    between atoms: _128  and  _129
REMARK   51  A    between atoms: _135  and  _137
REMARK   52  A    between atoms: _137  and  _138
REMARK   53  A    between atoms: _141  and  _143
REMARK   54  A    between atoms: _143  and  _144
REMARK   55  A    between atoms: _143  and  _146
REMARK   56  A    between atoms: _146  and  _147
REMARK   57  A    between atoms: _147  and  _148
REMARK   58  A    between atoms: _150  and  _152
REMARK   59  A    between atoms: _152  and  _153
REMARK   60  A    between atoms: _152  and  _155
REMARK   61  A    between atoms: _155  and  _156
REMARK   62  A    between atoms: _158  and  _160
REMARK   63  A    between atoms: _160  and  _161
REMARK   64  A    between atoms: _160  and  _163
REMARK   65  A    between atoms: _163  and  _164
REMARK   66  A    between atoms: _167  and  _169
REMARK   67  A    between atoms: _169  and  _170
REMARK   68  A    between atoms: _169  and  _172
REMARK   69  A    between atoms: _172  and  _173
REMARK   70  A    between atoms: _173  and  _174
REMARK   71  A    between atoms: _174  and  _175
REMARK   72  A    between atoms: _175  and  _176
REMARK   73  A    between atoms: _180  and  _182
REMARK   74  A    between atoms: _182  and  _183
REMARK   75  A    between atoms: _182  and  _185
REMARK   76  A    between atoms: _188  and  _190
REMARK   77  A    between atoms: _190  and  _191
REMARK   78  A    between atoms: _190  and  _193
REMARK   79  A    between atoms: _193  and  _194
REMARK   80  A    between atoms: _196  and  _198
REMARK   81  A    between atoms: _198  and  _199
REMARK   82  A    between atoms: _198  and  _201
REMARK   83  A    between atoms: _204  and  _206
REMARK   84  A    between atoms: _206  and  _207
REMARK   85  A    between atoms: _206  and  _209
REMARK   86  A    between atoms: _209  and  _210
REMARK   87  A    between atoms: _210  and  _211
REMARK   88  A    between atoms: _214  and  _216
REMARK   89  A    between atoms: _216  and  _217
REMARK   90  A    between atoms: _216  and  _219
REMARK   91  A    between atoms: _219  and  _220
REMARK   92  A    between atoms: _223  and  _225
REMARK   93  A    between atoms: _225  and  _226
REMARK   94  A    between atoms: _229  and  _231
REMARK   95  A    between atoms: _231  and  _232
REMARK   96  A    between atoms: _231  and  _234
REMARK   97  A    between atoms: _234  and  _235
REMARK   98  A    between atoms: _246  and  _247
REMARK   99  A    between atoms: _252  and  _254
REMARK  100  A    between atoms: _254  and  _255
REMARK  101  A    between atoms: _258  and  _260
REMARK  102  A    between atoms: _260  and  _261
REMARK  103  A    between atoms: _260  and  _263
REMARK  104  A    between atoms: _263  and  _264
REMARK  105  A    between atoms: _269  and  _271
REMARK  106  A    between atoms: _271  and  _272
REMARK  107  A    between atoms: _271  and  _274
REMARK  108  A    between atoms: _274  and  _275
REMARK  109  A    between atoms: _280  and  _281
REMARK  110  A    between atoms: _283  and  _285
REMARK  111  A    between atoms: _285  and  _286
REMARK  112  A    between atoms: _289  and  _291
REMARK  113  A    between atoms: _291  and  _292
REMARK  114  A    between atoms: _291  and  _294
REMARK  115  A    between atoms: _294  and  _295
REMARK  116  A    between atoms: _295  and  _296
REMARK  117  A    between atoms: _301  and  _303
REMARK  118  A    between atoms: _303  and  _304
REMARK  119  A    between atoms: _303  and  _306
REMARK  120  A    between atoms: _306  and  _307
REMARK  121  A    between atoms: _307  and  _308
REMARK  122  A    between atoms: _310  and  _312
REMARK  123  A    between atoms: _312  and  _313
REMARK  124  A    between atoms: _315  and  _317
REMARK  125  A    between atoms: _317  and  _318
REMARK  126  A    between atoms: _321  and  _323
REMARK  127  A    between atoms: _323  and  _324
REMARK  128  A    between atoms: _323  and  _326
REMARK  129  A    between atoms: _326  and  _327
REMARK  130  A    between atoms: _337  and  _339
REMARK  131  A    between atoms: _339  and  _340
REMARK  132  A    between atoms: _339  and  _342
REMARK  133  A    between atoms: _342  and  _343
REMARK  134  A    between atoms: _343  and  _344
REMARK  135  A    between atoms: _347  and  _349
REMARK  136  A    between atoms: _349  and  _350
REMARK  137  A    between atoms: _352  and  _354
REMARK  138  A    between atoms: _354  and  _355
REMARK  139  A    between atoms: _354  and  _357
REMARK  140  A    between atoms: _360  and  _362
REMARK  141  A    between atoms: _362  and  _363
REMARK  142  A    between atoms: _362  and  _365
REMARK  143  A    between atoms: _365  and  _366
REMARK  144  A    between atoms: _366  and  _367
REMARK  145  A    between atoms: _369  and  _371
REMARK  146  A    between atoms: _371  and  _372
REMARK  147  A    between atoms: _374  and  _376
REMARK  148  A    between atoms: _376  and  _377
REMARK  149  A    between atoms: _379  and  _381
REMARK  150  A    between atoms: _381  and  _382
REMARK  151  A    between atoms: _381  and  _384
REMARK  152  A    between atoms: _387  and  _389
REMARK  153  A    between atoms: _389  and  _390
REMARK  154  A    between atoms: _389  and  _392
REMARK  155  A    between atoms: _392  and  _393
REMARK  156  A    between atoms: _396  and  _398
REMARK  157  A    between atoms: _398  and  _399
REMARK  158  A    between atoms: _398  and  _401
REMARK  159  A    between atoms: _401  and  _402
REMARK  160  A    between atoms: _407  and  _408
REMARK  161  A    between atoms: _410  and  _412
REMARK  162  A    between atoms: _412  and  _413
REMARK  163  A    between atoms: _412  and  _415
REMARK  164  A    between atoms: _415  and  _416
REMARK  165  A    between atoms: _422  and  _424
REMARK  166  A    between atoms: _424  and  _425
REMARK  167  A    between atoms: _424  and  _427
REMARK  168  A    between atoms: _427  and  _428
REMARK  169  A    between atoms: _428  and  _429
REMARK  170  A    between atoms: _434  and  _436
REMARK  171  A    between atoms: _436  and  _437
REMARK  172  A    between atoms: _436  and  _439
REMARK  173  A    between atoms: _439  and  _440
REMARK  174  A    between atoms: _445  and  _446
REMARK  175  A    between atoms: _448  and  _450
REMARK  176  A    between atoms: _450  and  _451
REMARK  177  A    between atoms: _454  and  _456
REMARK  178  A    between atoms: _456  and  _457
REMARK  179  A    between atoms: _456  and  _459
REMARK  180  A    between atoms: _459  and  _460
REMARK  181  A    between atoms: _466  and  _468
REMARK  182  A    between atoms: _468  and  _469
REMARK  183  A    between atoms: _468  and  _471
REMARK  184  A    between atoms: _471  and  _472
REMARK  185  A    between atoms: _474  and  _476
REMARK  186  A    between atoms: _476  and  _477
REMARK  187  A    between atoms: _476  and  _479
REMARK  188  A    between atoms: _479  and  _480
REMARK  189  A    between atoms: _483  and  _485
REMARK  190  A    between atoms: _485  and  _486
REMARK  191  A    between atoms: _485  and  _488
REMARK  192  A    between atoms: _488  and  _489
REMARK  193  A    between atoms: _493  and  _494
REMARK  194  A    between atoms: _499  and  _501
REMARK  195  A    between atoms: _501  and  _502
REMARK  196  A    between atoms: _505  and  _507
REMARK  197  A    between atoms: _507  and  _508
REMARK  198  A    between atoms: _507  and  _510
REMARK  199  A    between atoms: _510  and  _511
REMARK  200  A    between atoms: _514  and  _516
REMARK  201  A    between atoms: _516  and  _517
REMARK  202  A    between atoms: _516  and  _519
REMARK  203  A    between atoms: _519  and  _520
REMARK  204  A    between atoms: _530  and  _532
REMARK  205  A    between atoms: _532  and  _533
REMARK  206  A    between atoms: _532  and  _535
REMARK  207  A    between atoms: _535  and  _536
REMARK  208  A    between atoms: _536  and  _537
REMARK  209  A    between atoms: _539  and  _541
REMARK  210  A    between atoms: _541  and  _542
REMARK  211  A    between atoms: _541  and  _544
REMARK  212  A    between atoms: _544  and  _545
REMARK  213  A    between atoms: _548  and  _550
REMARK  214  A    between atoms: _550  and  _551
REMARK  215  A    between atoms: _550  and  _553
REMARK  216  A    between atoms: _553  and  _554
REMARK  217  A    between atoms: _557  and  _559
REMARK  218  A    between atoms: _559  and  _560
REMARK  219  A    between atoms: _563  and  _565
REMARK  220  A    between atoms: _565  and  _566
REMARK  221  A    between atoms: _568  and  _570
REMARK  222  A    between atoms: _570  and  _571
REMARK  223  A    between atoms: _570  and  _573
REMARK  224  A    between atoms: _573  and  _574
REMARK  225  A    between atoms: _579  and  _581
REMARK  226  A    between atoms: _581  and  _582
REMARK  227  A    between atoms: _581  and  _584
REMARK  228  A    between atoms: _584  and  _585
REMARK                            x       y       z     vdW  Elec       q    Type
REMARK                         _______ _______ _______ _____ _____    ______ ____
ROOT
ATOM      1  O   HOH     1     -22.392  18.699 -15.728  0.00  0.00    +0.000 OA
ENDROOT
TORSDOF 0
REMARK  Name = ../refined-set-2016/4c1u/4c1u_pocket.pdb
REMARK  228 active torsions:
REMARK  status: ('A' for Active; 'I' for Inactive)
REMARK    1  A    between atoms: _1  and  _3
REMARK    2  A    between atoms: _3  and  _4
REMARK    3  A    between atoms: _3  and  _6
REMARK    4  A    between atoms: _6  and  _7
REMARK    5  A    between atoms: _12  and  _14
REMARK    6  A    between atoms: _14  and  _15
REMARK    7  A    between atoms: _14  and  _17
REMARK    8  A    between atoms: _17  and  _18
REMARK    9  A    between atoms: _23  and  _25
REMARK   10  A    between atoms: _25  and  _26
REMARK   11  A    between atoms: _29  and  _31
REMARK   12  A    between atoms: _31  and  _32
REMARK   13  A    between atoms: _31  and  _34
REMARK   14  A    between atoms: _34  and  _35
REMARK   15  A    between atoms: _37  and  _39
REMARK   16  A    between atoms: _39  and  _40
REMARK   17  A    between atoms: _43  and  _45
REMARK   18  A    between atoms: _45  and  _46
REMARK   19  A    between atoms: _48  and  _50
REMARK   20  A    between atoms: _50  and  _51
REMARK   21  A    between atoms: _50  and  _53
REMARK   22  A    between atoms: _53  and  _54
REMARK   23  A    between atoms: _54  and  _55
REMARK   24  A    between atoms: _55  and  _56
REMARK   25  A    between atoms: _65  and  _67
REMARK   26  A    between atoms: _67  and  _68
REMARK   27  A    between atoms: _67  and  _70
REMARK   28  A    between atoms: _70  and  _71
REMARK   29  A    between atoms: _81  and  _83
REMARK   30  A    between atoms: _83  and  _84
REMARK   31  A    between atoms: _83  and  _86
REMARK   32  A    between atoms: _86  and  _87
REMARK   33  A    between atoms: _90  and  _92
REMARK   34  A    between atoms: _92  and  _93
REMARK   35  A    between atoms: _92  and  _95
REMARK   36  A    between atoms: _95  and  _96
REMARK   37  A    between atoms: _96  and  _97
REMARK   38  A    between atoms: _102  and  _104
REMARK   39  A    between atoms: _104  and  _105
REMARK   40  A    between atoms: _104  and  _107
REMARK   41  A    between atoms: _107  and  _108
REMARK   42  A    between atoms: _113  and  _115
REMARK   43  A    between atoms: _115  and  _116
REMARK   44  A    between atoms: _115  and  _118
REMARK   45  A    between atoms: _118  and  _119
REMARK   46  A    between atoms: _119  and  _120
REMARK   47  A    between atoms: _123  and  _125
REMARK   48  A    between atoms: _125  and  _126
REMARK   49  A    between atoms: _125  and  _128
REMARK   50  A    between atoms: _128  and  _129
REMARK   51  A    between atoms: _135  and  _137
REMARK   52  A    between atoms: _137  and  _138
REMARK   53  A    between atoms: _141  and  _143
REMARK   54  A    between atoms: _143  and  _144
REMARK   55  A    between atoms: _143  and  _146
REMARK   56  A    between atoms: _146  and  _147
REMARK   57  A    between atoms: _147  and  _148
REMARK   58  A    between atoms: _150  and  _152
REMARK   59  A    between atoms: _152  and  _153
REMARK   60  A    between atoms: _152  and  _155
REMARK   61  A    between atoms: _155  and  _156
REMARK   62  A    between atoms: _158  and  _160
REMARK   63  A    between atoms: _160  and  _161
REMARK   64  A    between atoms: _160  and  _163
REMARK   65  A    between atoms: _163  and  _164
REMARK   66  A    between atoms: _167  and  _169
REMARK   67  A    between atoms: _169  and  _170
REMARK   68  A    between atoms: _169  and  _172
REMARK   69  A    between atoms: _172  and  _173
REMARK   70  A    between atoms: _173  and  _174
REMARK   71  A    between atoms: _174  and  _175
REMARK   72  A    between atoms: _175  and  _176
REMARK   73  A    between atoms: _180  and  _182
REMARK   74  A    between atoms: _182  and  _183
REMARK   75  A    between atoms: _182  and  _185
REMARK   76  A    between atoms: _188  and  _190
REMARK   77  A    between atoms: _190  and  _191
REMARK   78  A    between atoms: _190  and  _193
REMARK   79  A    between atoms: _193  and  _194
REMARK   80  A    between atoms: _196  and  _198
REMARK   81  A    between atoms: _198  and  _199
REMARK   82  A    between atoms: _198  and  _201
REMARK   83  A    between atoms: _204  and  _206
REMARK   84  A    between atoms: _206  and  _207
REMARK   85  A    between atoms: _206  and  _209
REMARK   86  A    between atoms: _209  and  _210
REMARK   87  A    between atoms: _210  and  _211
REMARK   88  A    between atoms: _214  and  _216
REMARK   89  A    between atoms: _216  and  _217
REMARK   90  A    between atoms: _216  and  _219
REMARK   91  A    between atoms: _219  and  _220
REMARK   92  A    between atoms: _223  and  _225
REMARK   93  A    between atoms: _225  and  _226
REMARK   94  A    between atoms: _229  and  _231
REMARK   95  A    between atoms: _231  and  _232
REMARK   96  A    between atoms: _231  and  _234
REMARK   97  A    between atoms: _234  and  _235
REMARK   98  A    between atoms: _246  and  _247
REMARK   99  A    between atoms: _252  and  _254
REMARK  100  A    between atoms: _254  and  _255
REMARK  101  A    between atoms: _258  and  _260
REMARK  102  A    between atoms: _260  and  _261
REMARK  103  A    between atoms: _260  and  _263
REMARK  104  A    between atoms: _263  and  _264
REMARK  105  A    between atoms: _269  and  _271
REMARK  106  A    between atoms: _271  and  _272
REMARK  107  A    between atoms: _271  and  _274
REMARK  108  A    between atoms: _274  and  _275
REMARK  109  A    between atoms: _280  and  _281
REMARK  110  A    between atoms: _283  and  _285
REMARK  111  A    between atoms: _285  and  _286
REMARK  112  A    between atoms: _289  and  _291
REMARK  113  A    between atoms: _291  and  _292
REMARK  114  A    between atoms: _291  and  _294
REMARK  115  A    between atoms: _294  and  _295
REMARK  116  A    between atoms: _295  and  _296
REMARK  117  A    between atoms: _301  and  _303
REMARK  118  A    between atoms: _303  and  _304
REMARK  119  A    between atoms: _303  and  _306
REMARK  120  A    between atoms: _306  and  _307
REMARK  121  A    between atoms: _307  and  _308
REMARK  122  A    between atoms: _310  and  _312
REMARK  123  A    between atoms: _312  and  _313
REMARK  124  A    between atoms: _315  and  _317
REMARK  125  A    between atoms: _317  and  _318
REMARK  126  A    between atoms: _321  and  _323
REMARK  127  A    between atoms: _323  and  _324
REMARK  128  A    between atoms: _323  and  _326
REMARK  129  A    between atoms: _326  and  _327
REMARK  130  A    between atoms: _337  and  _339
REMARK  131  A    between atoms: _339  and  _340
REMARK  132  A    between atoms: _339  and  _342
REMARK  133  A    between atoms: _342  and  _343
REMARK  134  A    between atoms: _343  and  _344
REMARK  135  A    between atoms: _347  and  _349
REMARK  136  A    between atoms: _349  and  _350
REMARK  137  A    between atoms: _352  and  _354
REMARK  138  A    between atoms: _354  and  _355
REMARK  139  A    between atoms: _354  and  _357
REMARK  140  A    between atoms: _360  and  _362
REMARK  141  A    between atoms: _362  and  _363
REMARK  142  A    between atoms: _362  and  _365
REMARK  143  A    between atoms: _365  and  _366
REMARK  144  A    between atoms: _366  and  _367
REMARK  145  A    between atoms: _369  and  _371
REMARK  146  A    between atoms: _371  and  _372
REMARK  147  A    between atoms: _374  and  _376
REMARK  148  A    between atoms: _376  and  _377
REMARK  149  A    between atoms: _379  and  _381
REMARK  150  A    between atoms: _381  and  _382
REMARK  151  A    between atoms: _381  and  _384
REMARK  152  A    between atoms: _387  and  _389
REMARK  153  A    between atoms: _389  and  _390
REMARK  154  A    between atoms: _389  and  _392
REMARK  155  A    between atoms: _392  and  _393
REMARK  156  A    between atoms: _396  and  _398
REMARK  157  A    between atoms: _398  and  _399
REMARK  158  A    between atoms: _398  and  _401
REMARK  159  A    between atoms: _401  and  _402
REMARK  160  A    between atoms: _407  and  _408
REMARK  161  A    between atoms: _410  and  _412
REMARK  162  A    between atoms: _412  and  _413
REMARK  163  A    between atoms: _412  and  _415
REMARK  164  A    between atoms: _415  and  _416
REMARK  165  A    between atoms: _422  and  _424
REMARK  166  A    between atoms: _424  and  _425
REMARK  167  A    between atoms: _424  and  _427
REMARK  168  A    between atoms: _427  and  _428
REMARK  169  A    between atoms: _428  and  _429
REMARK  170  A    between atoms: _434  and  _436
REMARK  171  A    between atoms: _436  and  _437
REMARK  172  A    between atoms: _436  and  _439
REMARK  173  A    between atoms: _439  and  _440
REMARK  174  A    between atoms: _445  and  _446
REMARK  175  A    between atoms: _448  and  _450
REMARK  176  A    between atoms: _450  and  _451
REMARK  177  A    between atoms: _454  and  _456
REMARK  178  A    between atoms: _456  and  _457
REMARK  179  A    between atoms: _456  and  _459
REMARK  180  A    between atoms: _459  and  _460
REMARK  181  A    between atoms: _466  and  _468
REMARK  182  A    between atoms: _468  and  _469
REMARK  183  A    between atoms: _468  and  _471
REMARK  184  A    between atoms: _471  and  _472
REMARK  185  A    between atoms: _474  and  _476
REMARK  186  A    between atoms: _476  and  _477
REMARK  187  A    between atoms: _476  and  _479
REMARK  188  A    between atoms: _479  and  _480
REMARK  189  A    between atoms: _483  and  _485
REMARK  190  A    between atoms: _485  and  _486
REMARK  191  A    between atoms: _485  and  _488
REMARK  192  A    between atoms: _488  and  _489
REMARK  193  A    between atoms: _493  and  _494
REMARK  194  A    between atoms: _499  and  _501
REMARK  195  A    between atoms: _501  and  _502
REMARK  196  A    between atoms: _505  and  _507
REMARK  197  A    between atoms: _507  and  _508
REMARK  198  A    between atoms: _507  and  _510
REMARK  199  A    between atoms: _510  and  _511
REMARK  200  A    between atoms: _514  and  _516
REMARK  201  A    between atoms: _516  and  _517
REMARK  202  A    between atoms: _516  and  _519
REMARK  203  A    between atoms: _519  and  _520
REMARK  204  A    between atoms: _530  and  _532
REMARK  205  A    between atoms: _532  and  _533
REMARK  206  A    between atoms: _532  and  _535
REMARK  207  A    between atoms: _535  and  _536
REMARK  208  A    between atoms: _536  and  _537
REMARK  209  A    between atoms: _539  and  _541
REMARK  210  A    between atoms: _541  and  _542
REMARK  211  A    between atoms: _541  and  _544
REMARK  212  A    between atoms: _544  and  _545
REMARK  213  A    between atoms: _548  and  _550
REMARK  214  A    between atoms: _550  and  _551
REMARK  215  A    between atoms: _550  and  _553
REMARK  216  A    between atoms: _553  and  _554
REMARK  217  A    between atoms: _557  and  _559
REMARK  218  A    between atoms: _559  and  _560
REMARK  219  A    between atoms: _563  and  _565
REMARK  220  A    between atoms: _565  and  _566
REMARK  221  A    between atoms: _568  and  _570
REMARK  222  A    between atoms: _570  and  _571
REMARK  223  A    between atoms: _570  and  _573
REMARK  224  A    between atoms: _573  and  _574
REMARK  225  A    between atoms: _579  and  _581
REMARK  226  A    between atoms: _581  and  _582
REMARK  227  A    between atoms: _581  and  _584
REMARK  228  A    between atoms: _584  and  _585
REMARK                            x       y       z     vdW  Elec       q    Type
REMARK                         _______ _______ _______ _____ _____    ______ ____
ROOT
ATOM      1  O   HOH     1     -13.973  17.770 -13.823  0.00  0.00    +0.000 OA
ENDROOT
TORSDOF 0
REMARK  Name = ../refined-set-2016/4c1u/4c1u_pocket.pdb
REMARK  228 active torsions:
REMARK  status: ('A' for Active; 'I' for Inactive)
REMARK    1  A    between atoms: _1  and  _3
REMARK    2  A    between atoms: _3  and  _4
REMARK    3  A    between atoms: _3  and  _6
REMARK    4  A    between atoms: _6  and  _7
REMARK    5  A    between atoms: _12  and  _14
REMARK    6  A    between atoms: _14  and  _15
REMARK    7  A    between atoms: _14  and  _17
REMARK    8  A    between atoms: _17  and  _18
REMARK    9  A    between atoms: _23  and  _25
REMARK   10  A    between atoms: _25  and  _26
REMARK   11  A    between atoms: _29  and  _31
REMARK   12  A    between atoms: _31  and  _32
REMARK   13  A    between atoms: _31  and  _34
REMARK   14  A    between atoms: _34  and  _35
REMARK   15  A    between atoms: _37  and  _39
REMARK   16  A    between atoms: _39  and  _40
REMARK   17  A    between atoms: _43  and  _45
REMARK   18  A    between atoms: _45  and  _46
REMARK   19  A    between atoms: _48  and  _50
REMARK   20  A    between atoms: _50  and  _51
REMARK   21  A    between atoms: _50  and  _53
REMARK   22  A    between atoms: _53  and  _54
REMARK   23  A    between atoms: _54  and  _55
REMARK   24  A    between atoms: _55  and  _56
REMARK   25  A    between atoms: _65  and  _67
REMARK   26  A    between atoms: _67  and  _68
REMARK   27  A    between atoms: _67  and  _70
REMARK   28  A    between atoms: _70  and  _71
REMARK   29  A    between atoms: _81  and  _83
REMARK   30  A    between atoms: _83  and  _84
REMARK   31  A    between atoms: _83  and  _86
REMARK   32  A    between atoms: _86  and  _87
REMARK   33  A    between atoms: _90  and  _92
REMARK   34  A    between atoms: _92  and  _93
REMARK   35  A    between atoms: _92  and  _95
REMARK   36  A    between atoms: _95  and  _96
REMARK   37  A    between atoms: _96  and  _97
REMARK   38  A    between atoms: _102  and  _104
REMARK   39  A    between atoms: _104  and  _105
REMARK   40  A    between atoms: _104  and  _107
REMARK   41  A    between atoms: _107  and  _108
REMARK   42  A    between atoms: _113  and  _115
REMARK   43  A    between atoms: _115  and  _116
REMARK   44  A    between atoms: _115  and  _118
REMARK   45  A    between atoms: _118  and  _119
REMARK   46  A    between atoms: _119  and  _120
REMARK   47  A    between atoms: _123  and  _125
REMARK   48  A    between atoms: _125  and  _126
REMARK   49  A    between atoms: _125  and  _128
REMARK   50  A    between atoms: _128  and  _129
REMARK   51  A    between atoms: _135  and  _137
REMARK   52  A    between atoms: _137  and  _138
REMARK   53  A    between atoms: _141  and  _143
REMARK   54  A    between atoms: _143  and  _144
REMARK   55  A    between atoms: _143  and  _146
REMARK   56  A    between atoms: _146  and  _147
REMARK   57  A    between atoms: _147  and  _148
REMARK   58  A    between atoms: _150  and  _152
REMARK   59  A    between atoms: _152  and  _153
REMARK   60  A    between atoms: _152  and  _155
REMARK   61  A    between atoms: _155  and  _156
REMARK   62  A    between atoms: _158  and  _160
REMARK   63  A    between atoms: _160  and  _161
REMARK   64  A    between atoms: _160  and  _163
REMARK   65  A    between atoms: _163  and  _164
REMARK   66  A    between atoms: _167  and  _169
REMARK   67  A    between atoms: _169  and  _170
REMARK   68  A    between atoms: _169  and  _172
REMARK   69  A    between atoms: _172  and  _173
REMARK   70  A    between atoms: _173  and  _174
REMARK   71  A    between atoms: _174  and  _175
REMARK   72  A    between atoms: _175  and  _176
REMARK   73  A    between atoms: _180  and  _182
REMARK   74  A    between atoms: _182  and  _183
REMARK   75  A    between atoms: _182  and  _185
REMARK   76  A    between atoms: _188  and  _190
REMARK   77  A    between atoms: _190  and  _191
REMARK   78  A    between atoms: _190  and  _193
REMARK   79  A    between atoms: _193  and  _194
REMARK   80  A    between atoms: _196  and  _198
REMARK   81  A    between atoms: _198  and  _199
REMARK   82  A    between atoms: _198  and  _201
REMARK   83  A    between atoms: _204  and  _206
REMARK   84  A    between atoms: _206  and  _207
REMARK   85  A    between atoms: _206  and  _209
REMARK   86  A    between atoms: _209  and  _210
REMARK   87  A    between atoms: _210  and  _211
REMARK   88  A    between atoms: _214  and  _216
REMARK   89  A    between atoms: _216  and  _217
REMARK   90  A    between atoms: _216  and  _219
REMARK   91  A    between atoms: _219  and  _220
REMARK   92  A    between atoms: _223  and  _225
REMARK   93  A    between atoms: _225  and  _226
REMARK   94  A    between atoms: _229  and  _231
REMARK   95  A    between atoms: _231  and  _232
REMARK   96  A    between atoms: _231  and  _234
REMARK   97  A    between atoms: _234  and  _235
REMARK   98  A    between atoms: _246  and  _247
REMARK   99  A    between atoms: _252  and  _254
REMARK  100  A    between atoms: _254  and  _255
REMARK  101  A    between atoms: _258  and  _260
REMARK  102  A    between atoms: _260  and  _261
REMARK  103  A    between atoms: _260  and  _263
REMARK  104  A    between atoms: _263  and  _264
REMARK  105  A    between atoms: _269  and  _271
REMARK  106  A    between atoms: _271  and  _272
REMARK  107  A    between atoms: _271  and  _274
REMARK  108  A    between atoms: _274  and  _275
REMARK  109  A    between atoms: _280  and  _281
REMARK  110  A    between atoms: _283  and  _285
REMARK  111  A    between atoms: _285  and  _286
REMARK  112  A    between atoms: _289  and  _291
REMARK  113  A    between atoms: _291  and  _292
REMARK  114  A    between atoms: _291  and  _294
REMARK  115  A    between atoms: _294  and  _295
REMARK  116  A    between atoms: _295  and  _296
REMARK  117  A    between atoms: _301  and  _303
REMARK  118  A    between atoms: _303  and  _304
REMARK  119  A    between atoms: _303  and  _306
REMARK  120  A    between atoms: _306  and  _307
REMARK  121  A    between atoms: _307  and  _308
REMARK  122  A    between atoms: _310  and  _312
REMARK  123  A    between atoms: _312  and  _313
REMARK  124  A    between atoms: _315  and  _317
REMARK  125  A    between atoms: _317  and  _318
REMARK  126  A    between atoms: _321  and  _323
REMARK  127  A    between atoms: _323  and  _324
REMARK  128  A    between atoms: _323  and  _326
REMARK  129  A    between atoms: _326  and  _327
REMARK  130  A    between atoms: _337  and  _339
REMARK  131  A    between atoms: _339  and  _340
REMARK  132  A    between atoms: _339  and  _342
REMARK  133  A    between atoms: _342  and  _343
REMARK  134  A    between atoms: _343  and  _344
REMARK  135  A    between atoms: _347  and  _349
REMARK  136  A    between atoms: _349  and  _350
REMARK  137  A    between atoms: _352  and  _354
REMARK  138  A    between atoms: _354  and  _355
REMARK  139  A    between atoms: _354  and  _357
REMARK  140  A    between atoms: _360  and  _362
REMARK  141  A    between atoms: _362  and  _363
REMARK  142  A    between atoms: _362  and  _365
REMARK  143  A    between atoms: _365  and  _366
REMARK  144  A    between atoms: _366  and  _367
REMARK  145  A    between atoms: _369  and  _371
REMARK  146  A    between atoms: _371  and  _372
REMARK  147  A    between atoms: _374  and  _376
REMARK  148  A    between atoms: _376  and  _377
REMARK  149  A    between atoms: _379  and  _381
REMARK  150  A    between atoms: _381  and  _382
REMARK  151  A    between atoms: _381  and  _384
REMARK  152  A    between atoms: _387  and  _389
REMARK  153  A    between atoms: _389  and  _390
REMARK  154  A    between atoms: _389  and  _392
REMARK  155  A    between atoms: _392  and  _393
REMARK  156  A    between atoms: _396  and  _398
REMARK  157  A    between atoms: _398  and  _399
REMARK  158  A    between atoms: _398  and  _401
REMARK  159  A    between atoms: _401  and  _402
REMARK  160  A    between atoms: _407  and  _408
REMARK  161  A    between atoms: _410  and  _412
REMARK  162  A    between atoms: _412  and  _413
REMARK  163  A    between atoms: _412  and  _415
REMARK  164  A    between atoms: _415  and  _416
REMARK  165  A    between atoms: _422  and  _424
REMARK  166  A    between atoms: _424  and  _425
REMARK  167  A    between atoms: _424  and  _427
REMARK  168  A    between atoms: _427  and  _428
REMARK  169  A    between atoms: _428  and  _429
REMARK  170  A    between atoms: _434  and  _436
REMARK  171  A    between atoms: _436  and  _437
REMARK  172  A    between atoms: _436  and  _439
REMARK  173  A    between atoms: _439  and  _440
REMARK  174  A    between atoms: _445  and  _446
REMARK  175  A    between atoms: _448  and  _450
REMARK  176  A    between atoms: _450  and  _451
REMARK  177  A    between atoms: _454  and  _456
REMARK  178  A    between atoms: _456  and  _457
REMARK  179  A    between atoms: _456  and  _459
REMARK  180  A    between atoms: _459  and  _460
REMARK  181  A    between atoms: _466  and  _468
REMARK  182  A    between atoms: _468  and  _469
REMARK  183  A    between atoms: _468  and  _471
REMARK  184  A    between atoms: _471  and  _472
REMARK  185  A    between atoms: _474  and  _476
REMARK  186  A    between atoms: _476  and  _477
REMARK  187  A    between atoms: _476  and  _479
REMARK  188  A    between atoms: _479  and  _480
REMARK  189  A    between atoms: _483  and  _485
REMARK  190  A    between atoms: _485  and  _486
REMARK  191  A    between atoms: _485  and  _488
REMARK  192  A    between atoms: _488  and  _489
REMARK  193  A    between atoms: _493  and  _494
REMARK  194  A    between atoms: _499  and  _501
REMARK  195  A    between atoms: _501  and  _502
REMARK  196  A    between atoms: _505  and  _507
REMARK  197  A    between atoms: _507  and  _508
REMARK  198  A    between atoms: _507  and  _510
REMARK  199  A    between atoms: _510  and  _511
REMARK  200  A    between atoms: _514  and  _516
REMARK  201  A    between atoms: _516  and  _517
REMARK  202  A    between atoms: _516  and  _519
REMARK  203  A    between atoms: _519  and  _520
REMARK  204  A    between atoms: _530  and  _532
REMARK  205  A    between atoms: _532  and  _533
REMARK  206  A    between atoms: _532  and  _535
REMARK  207  A    between atoms: _535  and  _536
REMARK  208  A    between atoms: _536  and  _537
REMARK  209  A    between atoms: _539  and  _541
REMARK  210  A    between atoms: _541  and  _542
REMARK  211  A    between atoms: _541  and  _544
REMARK  212  A    between atoms: _544  and  _545
REMARK  213  A    between atoms: _548  and  _550
REMARK  214  A    between atoms: _550  and  _551
REMARK  215  A    between atoms: _550  and  _553
REMARK  216  A    between atoms: _553  and  _554
REMARK  217  A    between atoms: _557  and  _559
REMARK  218  A    between atoms: _559  and  _560
REMARK  219  A    between atoms: _563  and  _565
REMARK  220  A    between atoms: _565  and  _566
REMARK  221  A    between atoms: _568  and  _570
REMARK  222  A    between atoms: _570  and  _571
REMARK  223  A    between atoms: _570  and  _573
REMARK  224  A    between atoms: _573  and  _574
REMARK  225  A    between atoms: _579  and  _581
REMARK  226  A    between atoms: _581  and  _582
REMARK  227  A    between atoms: _581  and  _584
REMARK  228  A    between atoms: _584  and  _585
REMARK                            x       y       z     vdW  Elec       q    Type
REMARK                         _______ _______ _______ _____ _____    ______ ____
ROOT
ATOM      1  O   HOH     1     -13.338  20.823  -7.146  0.00  0.00    +0.000 OA
ENDROOT
TORSDOF 0
