REMARK  Name = ../refined-set-2016/3hww/3hww_pocket.pdb
REMARK  117 active torsions:
REMARK  status: ('A' for Active; 'I' for Inactive)
REMARK    1  A    between atoms: _1  and  _3
REMARK    2  A    between atoms: _3  and  _4
REMARK    3  A    between atoms: _3  and  _6
REMARK    4  A    between atoms: _6  and  _7
REMARK    5  A    between atoms: _7  and  _8
REMARK    6  A    between atoms: _11  and  _13
REMARK    7  A    between atoms: _13  and  _14
REMARK    8  A    between atoms: _16  and  _18
REMARK    9  A    between atoms: _18  and  _19
REMARK   10  A    between atoms: _18  and  _21
REMARK   11  A    between atoms: _21  and  _22
REMARK   12  A    between atoms: _27  and  _29
REMARK   13  A    between atoms: _29  and  _30
REMARK   14  A    between atoms: _29  and  _32
REMARK   15  A    between atoms: _32  and  _33
REMARK   16  A    between atoms: _35  and  _37
REMARK   17  A    between atoms: _37  and  _38
REMARK   18  A    between atoms: _37  and  _40
REMARK   19  A    between atoms: _40  and  _41
REMARK   20  A    between atoms: _44  and  _46
REMARK   21  A    between atoms: _46  and  _47
REMARK   22  A    between atoms: _46  and  _49
REMARK   23  A    between atoms: _54  and  _55
REMARK   24  A    between atoms: _54  and  _57
REMARK   25  A    between atoms: _60  and  _62
REMARK   26  A    between atoms: _62  and  _63
REMARK   27  A    between atoms: _62  and  _65
REMARK   28  A    between atoms: _65  and  _66
REMARK   29  A    between atoms: _66  and  _67
REMARK   30  A    between atoms: _67  and  _68
REMARK   31  A    between atoms: _77  and  _79
REMARK   32  A    between atoms: _79  and  _80
REMARK   33  A    between atoms: _79  and  _82
REMARK   34  A    between atoms: _82  and  _83
REMARK   35  A    between atoms: _86  and  _88
REMARK   36  A    between atoms: _88  and  _89
REMARK   37  A    between atoms: _88  and  _91
REMARK   38  A    between atoms: _91  and  _92
REMARK   39  A    between atoms: _92  and  _93
REMARK   40  A    between atoms: _93  and  _94
REMARK   41  A    between atoms: _103  and  _105
REMARK   42  A    between atoms: _105  and  _106
REMARK   43  A    between atoms: _108  and  _110
REMARK   44  A    between atoms: _110  and  _111
REMARK   45  A    between atoms: _110  and  _113
REMARK   46  A    between atoms: _113  and  _114
REMARK   47  A    between atoms: _117  and  _119
REMARK   48  A    between atoms: _119  and  _120
REMARK   49  A    between atoms: _119  and  _122
REMARK   50  A    between atoms: _122  and  _123
REMARK   51  A    between atoms: _126  and  _128
REMARK   52  A    between atoms: _128  and  _129
REMARK   53  A    between atoms: _128  and  _131
REMARK   54  A    between atoms: _134  and  _136
REMARK   55  A    between atoms: _136  and  _137
REMARK   56  A    between atoms: _139  and  _141
REMARK   57  A    between atoms: _141  and  _142
REMARK   58  A    between atoms: _141  and  _144
REMARK   59  A    between atoms: _144  and  _145
REMARK   60  A    between atoms: _145  and  _146
REMARK   61  A    between atoms: _146  and  MG_294
REMARK   62  A    between atoms: _148  and  _150
REMARK   63  A    between atoms: _150  and  _151
REMARK   64  A    between atoms: _150  and  _153
REMARK   65  A    between atoms: _153  and  _154
REMARK   66  A    between atoms: _157  and  _159
REMARK   67  A    between atoms: _159  and  _160
REMARK   68  A    between atoms: _159  and  _162
REMARK   69  A    between atoms: _162  and  _163
REMARK   70  A    between atoms: _165  and  _167
REMARK   71  A    between atoms: _167  and  _168
REMARK   72  A    between atoms: _171  and  _173
REMARK   73  A    between atoms: _173  and  _174
REMARK   74  A    between atoms: _173  and  _176
REMARK   75  A    between atoms: _176  and  _177
REMARK   76  A    between atoms: _180  and  _182
REMARK   77  A    between atoms: _182  and  _183
REMARK   78  A    between atoms: _182  and  _185
REMARK   79  A    between atoms: _185  and  _186
REMARK   80  A    between atoms: _191  and  _192
REMARK   81  A    between atoms: _194  and  _196
REMARK   82  A    between atoms: _196  and  _197
REMARK   83  A    between atoms: _196  and  _199
REMARK   84  A    between atoms: _202  and  _204
REMARK   85  A    between atoms: _204  and  _205
REMARK   86  A    between atoms: _204  and  _207
REMARK   87  A    between atoms: _210  and  _212
REMARK   88  A    between atoms: _212  and  _213
REMARK   89  A    between atoms: _212  and  _215
REMARK   90  A    between atoms: _215  and  _216
REMARK   91  A    between atoms: _221  and  _223
REMARK   92  A    between atoms: _223  and  _224
REMARK   93  A    between atoms: _223  and  _226
REMARK   94  A    between atoms: _226  and  _227
REMARK   95  A    between atoms: _232  and  _234
REMARK   96  A    between atoms: _234  and  _235
REMARK   97  A    between atoms: _234  and  _237
REMARK   98  A    between atoms: _237  and  _238
REMARK   99  A    between atoms: _243  and  _245
REMARK  100  A    between atoms: _245  and  _246
REMARK  101  A    between atoms: _248  and  _250
REMARK  102  A    between atoms: _250  and  _251
REMARK  103  A    between atoms: _250  and  _253
REMARK  104  A    between atoms: _253  and  _254
REMARK  105  A    between atoms: _260  and  _262
REMARK  106  A    between atoms: _262  and  _263
REMARK  107  A    between atoms: _262  and  _265
REMARK  108  A    between atoms: _268  and  _270
REMARK  109  A    between atoms: _270  and  _271
REMARK  110  A    between atoms: _270  and  _273
REMARK  111  A    between atoms: _273  and  _274
REMARK  112  A    between atoms: _279  and  _281
REMARK  113  A    between atoms: _281  and  _282
REMARK  114  A    between atoms: _281  and  _284
REMARK  115  A    between atoms: _284  and  _285
REMARK  116  A    between atoms: _288  and  _290
REMARK  117  A    between atoms: _290  and  _291
REMARK                            x       y       z     vdW  Elec       q    Type
REMARK                         _______ _______ _______ _____ _____    ______ ____
ROOT
ATOM      1  CA  GLU A   1     -53.963   2.757  16.123  0.00  0.00    +0.134 C 
ENDROOT
BRANCH   1   2
ATOM      2  N   GLU A   1     -54.746   3.861  16.658  0.00  0.00    -0.239 NA
ATOM      3  H   GLU A   1     -54.218   4.616  17.141  0.00  0.00    +0.142 HD
ENDBRANCH   1   2
BRANCH   1   4
ATOM      4  C   GLU A   1     -54.407   1.361  16.583  0.00  0.00    +0.224 C 
ATOM      5  O   GLU A   1     -54.594   0.454  15.773  0.00  0.00    -0.287 OA
ENDBRANCH   1   4
BRANCH   1   6
ATOM      6  CB  GLU A   1     -52.491   3.006  16.545  0.00  0.00    +0.037 C 
BRANCH   6   7
ATOM      7  CG  GLU A   1     -51.491   2.053  15.971  0.00  0.00    +0.116 C 
BRANCH   7   8
ATOM      8  CD  GLU A   1     -50.062   2.609  15.941  0.00  0.00    +0.365 C 
ATOM      9  OE2 GLU A   1     -49.830   3.774  16.317  0.00  0.00    -0.246 OA
ATOM     10  OE1 GLU A   1     -49.160   1.866  15.516  0.00  0.00    -0.246 OA
ENDBRANCH   7   8
ENDBRANCH   6   7
ENDBRANCH   1   6
TORSDOF 5
REMARK  Name = ../refined-set-2016/3hww/3hww_pocket.pdb
REMARK  117 active torsions:
REMARK  status: ('A' for Active; 'I' for Inactive)
REMARK    1  A    between atoms: _1  and  _3
REMARK    2  A    between atoms: _3  and  _4
REMARK    3  A    between atoms: _3  and  _6
REMARK    4  A    between atoms: _6  and  _7
REMARK    5  A    between atoms: _7  and  _8
REMARK    6  A    between atoms: _11  and  _13
REMARK    7  A    between atoms: _13  and  _14
REMARK    8  A    between atoms: _16  and  _18
REMARK    9  A    between atoms: _18  and  _19
REMARK   10  A    between atoms: _18  and  _21
REMARK   11  A    between atoms: _21  and  _22
REMARK   12  A    between atoms: _27  and  _29
REMARK   13  A    between atoms: _29  and  _30
REMARK   14  A    between atoms: _29  and  _32
REMARK   15  A    between atoms: _32  and  _33
REMARK   16  A    between atoms: _35  and  _37
REMARK   17  A    between atoms: _37  and  _38
REMARK   18  A    between atoms: _37  and  _40
REMARK   19  A    between atoms: _40  and  _41
REMARK   20  A    between atoms: _44  and  _46
REMARK   21  A    between atoms: _46  and  _47
REMARK   22  A    between atoms: _46  and  _49
REMARK   23  A    between atoms: _54  and  _55
REMARK   24  A    between atoms: _54  and  _57
REMARK   25  A    between atoms: _60  and  _62
REMARK   26  A    between atoms: _62  and  _63
REMARK   27  A    between atoms: _62  and  _65
REMARK   28  A    between atoms: _65  and  _66
REMARK   29  A    between atoms: _66  and  _67
REMARK   30  A    between atoms: _67  and  _68
REMARK   31  A    between atoms: _77  and  _79
REMARK   32  A    between atoms: _79  and  _80
REMARK   33  A    between atoms: _79  and  _82
REMARK   34  A    between atoms: _82  and  _83
REMARK   35  A    between atoms: _86  and  _88
REMARK   36  A    between atoms: _88  and  _89
REMARK   37  A    between atoms: _88  and  _91
REMARK   38  A    between atoms: _91  and  _92
REMARK   39  A    between atoms: _92  and  _93
REMARK   40  A    between atoms: _93  and  _94
REMARK   41  A    between atoms: _103  and  _105
REMARK   42  A    between atoms: _105  and  _106
REMARK   43  A    between atoms: _108  and  _110
REMARK   44  A    between atoms: _110  and  _111
REMARK   45  A    between atoms: _110  and  _113
REMARK   46  A    between atoms: _113  and  _114
REMARK   47  A    between atoms: _117  and  _119
REMARK   48  A    between atoms: _119  and  _120
REMARK   49  A    between atoms: _119  and  _122
REMARK   50  A    between atoms: _122  and  _123
REMARK   51  A    between atoms: _126  and  _128
REMARK   52  A    between atoms: _128  and  _129
REMARK   53  A    between atoms: _128  and  _131
REMARK   54  A    between atoms: _134  and  _136
REMARK   55  A    between atoms: _136  and  _137
REMARK   56  A    between atoms: _139  and  _141
REMARK   57  A    between atoms: _141  and  _142
REMARK   58  A    between atoms: _141  and  _144
REMARK   59  A    between atoms: _144  and  _145
REMARK   60  A    between atoms: _145  and  _146
REMARK   61  A    between atoms: _146  and  MG_294
REMARK   62  A    between atoms: _148  and  _150
REMARK   63  A    between atoms: _150  and  _151
REMARK   64  A    between atoms: _150  and  _153
REMARK   65  A    between atoms: _153  and  _154
REMARK   66  A    between atoms: _157  and  _159
REMARK   67  A    between atoms: _159  and  _160
REMARK   68  A    between atoms: _159  and  _162
REMARK   69  A    between atoms: _162  and  _163
REMARK   70  A    between atoms: _165  and  _167
REMARK   71  A    between atoms: _167  and  _168
REMARK   72  A    between atoms: _171  and  _173
REMARK   73  A    between atoms: _173  and  _174
REMARK   74  A    between atoms: _173  and  _176
REMARK   75  A    between atoms: _176  and  _177
REMARK   76  A    between atoms: _180  and  _182
REMARK   77  A    between atoms: _182  and  _183
REMARK   78  A    between atoms: _182  and  _185
REMARK   79  A    between atoms: _185  and  _186
REMARK   80  A    between atoms: _191  and  _192
REMARK   81  A    between atoms: _194  and  _196
REMARK   82  A    between atoms: _196  and  _197
REMARK   83  A    between atoms: _196  and  _199
REMARK   84  A    between atoms: _202  and  _204
REMARK   85  A    between atoms: _204  and  _205
REMARK   86  A    between atoms: _204  and  _207
REMARK   87  A    between atoms: _210  and  _212
REMARK   88  A    between atoms: _212  and  _213
REMARK   89  A    between atoms: _212  and  _215
REMARK   90  A    between atoms: _215  and  _216
REMARK   91  A    between atoms: _221  and  _223
REMARK   92  A    between atoms: _223  and  _224
REMARK   93  A    between atoms: _223  and  _226
REMARK   94  A    between atoms: _226  and  _227
REMARK   95  A    between atoms: _232  and  _234
REMARK   96  A    between atoms: _234  and  _235
REMARK   97  A    between atoms: _234  and  _237
REMARK   98  A    between atoms: _237  and  _238
REMARK   99  A    between atoms: _243  and  _245
REMARK  100  A    between atoms: _245  and  _246
REMARK  101  A    between atoms: _248  and  _250
REMARK  102  A    between atoms: _250  and  _251
REMARK  103  A    between atoms: _250  and  _253
REMARK  104  A    between atoms: _253  and  _254
REMARK  105  A    between atoms: _260  and  _262
REMARK  106  A    between atoms: _262  and  _263
REMARK  107  A    between atoms: _262  and  _265
REMARK  108  A    between atoms: _268  and  _270
REMARK  109  A    between atoms: _270  and  _271
REMARK  110  A    between atoms: _270  and  _273
REMARK  111  A    between atoms: _273  and  _274
REMARK  112  A    between atoms: _279  and  _281
REMARK  113  A    between atoms: _281  and  _282
REMARK  114  A    between atoms: _281  and  _284
REMARK  115  A    between atoms: _284  and  _285
REMARK  116  A    between atoms: _288  and  _290
REMARK  117  A    between atoms: _290  and  _291
REMARK                            x       y       z     vdW  Elec       q    Type
REMARK                         _______ _______ _______ _____ _____    ______ ____
ROOT
ATOM      1  CA  VAL A   5     -49.687  -1.575  14.057  0.00  0.00    +0.149 C 
ENDROOT
BRANCH   1   2
ATOM      2  C   VAL A   5     -49.940  -3.027  13.681  0.00  0.00    +0.244 C 
ATOM      3  O   VAL A   5     -51.030  -3.532  13.873  0.00  0.00    -0.273 OA
ATOM      4  N   VAL A   6     -48.942  -3.703  13.164  0.00  0.00    -0.282 N 
ATOM      5  H   VAL A   6     -48.034  -3.247  12.944  0.00  0.00    +0.155 HD
ATOM      6  CA  VAL A   6     -49.155  -5.079  12.919  0.00  0.00    +0.081 C 
BRANCH   6   7
ATOM      7  C   VAL A   6     -48.938  -6.026  14.111  0.00  0.00    +0.256 C 
ATOM      8  N   ARG A   7     -48.054  -5.703  15.050  0.00  0.00    -0.294 N 
ATOM      9  H   ARG A   7     -47.330  -4.978  14.872  0.00  0.00    +0.150 HD
ATOM     10  O   VAL A   6     -49.593  -7.057  14.184  0.00  0.00    -0.269 OA
BRANCH   8  11
ATOM     11  CA  ARG A   7     -48.122  -6.385  16.327  0.00  0.00    +0.149 C 
BRANCH  11  12
ATOM     12  C   ARG A   7     -49.498  -6.145  16.986  0.00  0.00    +0.241 C 
ATOM     13  O   ARG A   7     -50.079  -7.040  17.584  0.00  0.00    -0.273 OA
ATOM     14  N   LEU A   8     -50.046  -4.950  16.876  0.00  0.00    -0.298 N 
ATOM     15  H   LEU A   8     -49.523  -4.172  16.425  0.00  0.00    +0.150 HD
BRANCH  14  16
ATOM     16  CA  LEU A   8     -51.402  -4.729  17.397  0.00  0.00    +0.137 C 
BRANCH  16  17
ATOM     17  C   LEU A   8     -52.505  -5.530  16.735  0.00  0.00    +0.227 C 
ATOM     18  O   LEU A   8     -53.399  -5.964  17.439  0.00  0.00    -0.286 OA
ENDBRANCH  16  17
BRANCH  16  19
ATOM     19  CB  LEU A   8     -51.789  -3.266  17.365  0.00  0.00    +0.028 C 
BRANCH  19  20
ATOM     20  CG  LEU A   8     -50.910  -2.283  18.137  0.00  0.00    +0.002 C 
ATOM     21  CD2 LEU A   8     -51.013  -2.525  19.618  0.00  0.00    +0.000 C 
ATOM     22  CD1 LEU A   8     -51.337  -0.889  17.802  0.00  0.00    +0.000 C 
ENDBRANCH  19  20
ENDBRANCH  16  19
ENDBRANCH  14  16
ENDBRANCH  11  12
BRANCH  11  23
ATOM     23  CB  ARG A   7     -47.010  -5.918  17.250  0.00  0.00    +0.033 C 
BRANCH  23  24
ATOM     24  CG  ARG A   7     -45.599  -6.416  16.849  0.00  0.00    +0.045 C 
BRANCH  24  25
ATOM     25  CD  ARG A   7     -44.586  -6.090  17.953  0.00  0.00    +0.174 C 
BRANCH  25  26
ATOM     26  NE  ARG A   7     -44.249  -4.670  17.961  0.00  0.00    -0.265 N 
ATOM     27  HE  ARG A   7     -44.468  -4.121  18.817  0.00  0.00    +0.259 HD
ATOM     28  CZ  ARG A   7     -43.676  -4.032  16.935  0.00  0.00    +0.342 C 
ATOM     29  NH2 ARG A   7     -43.381  -2.737  17.021  0.00  0.00    -0.292 N 
ATOM     30 HH21 ARG A   7     -43.596  -2.211  17.892  0.00  0.00    +0.255 HD
ATOM     31 HH22 ARG A   7     -42.935  -2.251  16.217  0.00  0.00    +0.255 HD
ATOM     32  NH1 ARG A   7     -43.390  -4.681  15.811  0.00  0.00    -0.292 N 
ATOM     33 HH11 ARG A   7     -43.612  -5.693  15.724  0.00  0.00    +0.255 HD
ATOM     34 HH12 ARG A   7     -42.944  -4.177  15.018  0.00  0.00    +0.255 HD
ENDBRANCH  25  26
ENDBRANCH  24  25
ENDBRANCH  23  24
ENDBRANCH  11  23
ENDBRANCH   8  11
ENDBRANCH   6   7
BRANCH   6  35
ATOM     35  CB  VAL A   6     -48.576  -5.553  11.549  0.00  0.00    +0.041 C 
ATOM     36  CG2 VAL A   6     -47.919  -6.975  11.641  0.00  0.00    +0.006 C 
ATOM     37  CG1 VAL A   6     -47.741  -4.454  10.875  0.00  0.00    +0.006 C 
ENDBRANCH   6  35
ENDBRANCH   1   2
BRANCH   1  40
ATOM     38  C   LEU A   4     -47.749  -2.056  15.487  0.00  0.00    +0.241 C 
ATOM     39  O   LEU A   4     -48.237  -3.041  16.066  0.00  0.00    -0.273 OA
ATOM     40  N   VAL A   5     -48.338  -1.345  14.526  0.00  0.00    -0.297 N 
ATOM     41  H   VAL A   5     -47.793  -0.576  14.085  0.00  0.00    +0.150 HD
BRANCH  38  42
ATOM     42  CA  LEU A   4     -46.383  -1.528  15.858  0.00  0.00    +0.149 C 
BRANCH  42  44
ATOM     43  C   SER A   3     -45.410  -2.179  13.726  0.00  0.00    +0.243 C 
ATOM     44  N   LEU A   4     -45.669  -1.209  14.612  0.00  0.00    -0.297 N 
ATOM     45  H   LEU A   4     -45.366  -0.233  14.420  0.00  0.00    +0.150 HD
ATOM     46  O   SER A   3     -45.660  -3.377  13.932  0.00  0.00    -0.273 OA
BRANCH  43  47
ATOM     47  CA  SER A   3     -44.773  -1.773  12.424  0.00  0.00    +0.178 C 
BRANCH  47  49
ATOM     48  C   ASN A   2     -43.282  -3.145  11.043  0.00  0.00    +0.241 C 
ATOM     49  N   SER A   3     -44.488  -2.939  11.579  0.00  0.00    -0.295 N 
ATOM     50  H   SER A   3     -45.247  -3.625  11.392  0.00  0.00    +0.150 HD
ATOM     51  O   ASN A   2     -42.275  -2.575  11.421  0.00  0.00    -0.273 OA
BRANCH  48  52
ATOM     52  CA  ASN A   2     -43.186  -4.167   9.928  0.00  0.00    +0.158 C 
BRANCH  52  55
ATOM     53  C   GLY A   1     -45.066  -4.577   8.429  0.00  0.00    +0.240 C 
ATOM     54  O   GLY A   1     -45.496  -5.514   9.140  0.00  0.00    -0.274 OA
ATOM     55  N   ASN A   2     -44.006  -3.849   8.765  0.00  0.00    -0.297 N 
ATOM     56  H   ASN A   2     -43.754  -3.027   8.180  0.00  0.00    +0.150 HD
BRANCH  53  57
ATOM     57  CA  GLY A   1     -45.722  -4.186   7.108  0.00  0.00    +0.169 C 
BRANCH  57  58
ATOM     58  N   GLY A   1     -47.100  -4.609   6.929  0.00  0.00    -0.236 NA
ATOM     59  H   GLY A   1     -47.861  -3.908   7.036  0.00  0.00    +0.142 HD
ENDBRANCH  57  58
ENDBRANCH  53  57
ENDBRANCH  52  55
BRANCH  52  60
ATOM     60  CB  ASN A   2     -41.745  -4.438   9.458  0.00  0.00    +0.114 C 
BRANCH  60  61
ATOM     61  CG  ASN A   2     -41.689  -5.688   8.558  0.00  0.00    +0.222 C 
ATOM     62  OD1 ASN A   2     -42.434  -6.655   8.833  0.00  0.00    -0.275 OA
ATOM     63  ND2 ASN A   2     -40.887  -5.668   7.467  0.00  0.00    -0.329 N 
ATOM     64 HD21 ASN A   2     -40.285  -4.841   7.280  0.00  0.00    +0.145 HD
ATOM     65 HD22 ASN A   2     -40.874  -6.479   6.817  0.00  0.00    +0.145 HD
ENDBRANCH  60  61
ENDBRANCH  52  60
ENDBRANCH  48  52
ENDBRANCH  47  49
BRANCH  47  66
ATOM     66  CB  SER A   3     -45.703  -0.798  11.707  0.00  0.00    +0.166 C 
BRANCH  66  67
ATOM     67  OG  SER A   3     -44.978   0.029  10.820  0.00  0.00    -0.380 OA
ATOM     68  H   SER A   3     -45.601   0.652  10.368  0.00  0.00    +0.211 HD
ENDBRANCH  66  67
ENDBRANCH  47  66
ENDBRANCH  43  47
ENDBRANCH  42  44
BRANCH  42  69
ATOM     69  CB  LEU A   4     -46.610  -0.304  16.745  0.00  0.00    +0.029 C 
BRANCH  69  70
ATOM     70  CG  LEU A   4     -46.530  -0.526  18.262  0.00  0.00    +0.002 C 
ATOM     71  CD2 LEU A   4     -47.045   0.732  18.990  0.00  0.00    +0.000 C 
ATOM     72  CD1 LEU A   4     -47.172  -1.783  18.864  0.00  0.00    +0.000 C 
ENDBRANCH  69  70
ENDBRANCH  42  69
ENDBRANCH  38  42
ENDBRANCH   1  40
BRANCH   1  73
ATOM     73  CB  VAL A   5     -50.088  -0.640  12.876  0.00  0.00    +0.027 C 
ATOM     74  CG2 VAL A   5     -51.642  -0.571  12.761  0.00  0.00    +0.002 C 
ATOM     75  CG1 VAL A   5     -49.395  -1.069  11.517  0.00  0.00    +0.002 C 
ENDBRANCH   1  73
TORSDOF 29
REMARK  Name = ../refined-set-2016/3hww/3hww_pocket.pdb
REMARK  117 active torsions:
REMARK  status: ('A' for Active; 'I' for Inactive)
REMARK    1  A    between atoms: _1  and  _3
REMARK    2  A    between atoms: _3  and  _4
REMARK    3  A    between atoms: _3  and  _6
REMARK    4  A    between atoms: _6  and  _7
REMARK    5  A    between atoms: _7  and  _8
REMARK    6  A    between atoms: _11  and  _13
REMARK    7  A    between atoms: _13  and  _14
REMARK    8  A    between atoms: _16  and  _18
REMARK    9  A    between atoms: _18  and  _19
REMARK   10  A    between atoms: _18  and  _21
REMARK   11  A    between atoms: _21  and  _22
REMARK   12  A    between atoms: _27  and  _29
REMARK   13  A    between atoms: _29  and  _30
REMARK   14  A    between atoms: _29  and  _32
REMARK   15  A    between atoms: _32  and  _33
REMARK   16  A    between atoms: _35  and  _37
REMARK   17  A    between atoms: _37  and  _38
REMARK   18  A    between atoms: _37  and  _40
REMARK   19  A    between atoms: _40  and  _41
REMARK   20  A    between atoms: _44  and  _46
REMARK   21  A    between atoms: _46  and  _47
REMARK   22  A    between atoms: _46  and  _49
REMARK   23  A    between atoms: _54  and  _55
REMARK   24  A    between atoms: _54  and  _57
REMARK   25  A    between atoms: _60  and  _62
REMARK   26  A    between atoms: _62  and  _63
REMARK   27  A    between atoms: _62  and  _65
REMARK   28  A    between atoms: _65  and  _66
REMARK   29  A    between atoms: _66  and  _67
REMARK   30  A    between atoms: _67  and  _68
REMARK   31  A    between atoms: _77  and  _79
REMARK   32  A    between atoms: _79  and  _80
REMARK   33  A    between atoms: _79  and  _82
REMARK   34  A    between atoms: _82  and  _83
REMARK   35  A    between atoms: _86  and  _88
REMARK   36  A    between atoms: _88  and  _89
REMARK   37  A    between atoms: _88  and  _91
REMARK   38  A    between atoms: _91  and  _92
REMARK   39  A    between atoms: _92  and  _93
REMARK   40  A    between atoms: _93  and  _94
REMARK   41  A    between atoms: _103  and  _105
REMARK   42  A    between atoms: _105  and  _106
REMARK   43  A    between atoms: _108  and  _110
REMARK   44  A    between atoms: _110  and  _111
REMARK   45  A    between atoms: _110  and  _113
REMARK   46  A    between atoms: _113  and  _114
REMARK   47  A    between atoms: _117  and  _119
REMARK   48  A    between atoms: _119  and  _120
REMARK   49  A    between atoms: _119  and  _122
REMARK   50  A    between atoms: _122  and  _123
REMARK   51  A    between atoms: _126  and  _128
REMARK   52  A    between atoms: _128  and  _129
REMARK   53  A    between atoms: _128  and  _131
REMARK   54  A    between atoms: _134  and  _136
REMARK   55  A    between atoms: _136  and  _137
REMARK   56  A    between atoms: _139  and  _141
REMARK   57  A    between atoms: _141  and  _142
REMARK   58  A    between atoms: _141  and  _144
REMARK   59  A    between atoms: _144  and  _145
REMARK   60  A    between atoms: _145  and  _146
REMARK   61  A    between atoms: _146  and  MG_294
REMARK   62  A    between atoms: _148  and  _150
REMARK   63  A    between atoms: _150  and  _151
REMARK   64  A    between atoms: _150  and  _153
REMARK   65  A    between atoms: _153  and  _154
REMARK   66  A    between atoms: _157  and  _159
REMARK   67  A    between atoms: _159  and  _160
REMARK   68  A    between atoms: _159  and  _162
REMARK   69  A    between atoms: _162  and  _163
REMARK   70  A    between atoms: _165  and  _167
REMARK   71  A    between atoms: _167  and  _168
REMARK   72  A    between atoms: _171  and  _173
REMARK   73  A    between atoms: _173  and  _174
REMARK   74  A    between atoms: _173  and  _176
REMARK   75  A    between atoms: _176  and  _177
REMARK   76  A    between atoms: _180  and  _182
REMARK   77  A    between atoms: _182  and  _183
REMARK   78  A    between atoms: _182  and  _185
REMARK   79  A    between atoms: _185  and  _186
REMARK   80  A    between atoms: _191  and  _192
REMARK   81  A    between atoms: _194  and  _196
REMARK   82  A    between atoms: _196  and  _197
REMARK   83  A    between atoms: _196  and  _199
REMARK   84  A    between atoms: _202  and  _204
REMARK   85  A    between atoms: _204  and  _205
REMARK   86  A    between atoms: _204  and  _207
REMARK   87  A    between atoms: _210  and  _212
REMARK   88  A    between atoms: _212  and  _213
REMARK   89  A    between atoms: _212  and  _215
REMARK   90  A    between atoms: _215  and  _216
REMARK   91  A    between atoms: _221  and  _223
REMARK   92  A    between atoms: _223  and  _224
REMARK   93  A    between atoms: _223  and  _226
REMARK   94  A    between atoms: _226  and  _227
REMARK   95  A    between atoms: _232  and  _234
REMARK   96  A    between atoms: _234  and  _235
REMARK   97  A    between atoms: _234  and  _237
REMARK   98  A    between atoms: _237  and  _238
REMARK   99  A    between atoms: _243  and  _245
REMARK  100  A    between atoms: _245  and  _246
REMARK  101  A    between atoms: _248  and  _250
REMARK  102  A    between atoms: _250  and  _251
REMARK  103  A    between atoms: _250  and  _253
REMARK  104  A    between atoms: _253  and  _254
REMARK  105  A    between atoms: _260  and  _262
REMARK  106  A    between atoms: _262  and  _263
REMARK  107  A    between atoms: _262  and  _265
REMARK  108  A    between atoms: _268  and  _270
REMARK  109  A    between atoms: _270  and  _271
REMARK  110  A    between atoms: _270  and  _273
REMARK  111  A    between atoms: _273  and  _274
REMARK  112  A    between atoms: _279  and  _281
REMARK  113  A    between atoms: _281  and  _282
REMARK  114  A    between atoms: _281  and  _284
REMARK  115  A    between atoms: _284  and  _285
REMARK  116  A    between atoms: _288  and  _290
REMARK  117  A    between atoms: _290  and  _291
REMARK                            x       y       z     vdW  Elec       q    Type
REMARK                         _______ _______ _______ _____ _____    ______ ____
ROOT
ATOM      1  NE  ARG A   1     -42.896  -9.538  11.322  0.00  0.00    -0.265 N 
ATOM      2  CZ  ARG A   1     -42.583  -8.642  12.275  0.00  0.00    +0.342 C 
ATOM      3  NH2 ARG A   1     -42.759  -8.945  13.569  0.00  0.00    -0.292 N 
ATOM      4 HH21 ARG A   1     -42.516  -8.250  14.304  0.00  0.00    +0.255 HD
ATOM      5 HH22 ARG A   1     -43.139  -9.875  13.838  0.00  0.00    +0.255 HD
ATOM      6  NH1 ARG A   1     -42.096  -7.431  11.952  0.00  0.00    -0.292 N 
ATOM      7 HH11 ARG A   1     -41.859  -6.749  12.701  0.00  0.00    +0.255 HD
ATOM      8 HH12 ARG A   1     -41.957  -7.176  10.953  0.00  0.00    +0.255 HD
ATOM      9  HE  ARG A   1     -43.268 -10.460  11.627  0.00  0.00    +0.259 HD
ENDROOT
BRANCH   1  10
ATOM     10  CD  ARG A   1     -42.748  -9.302   9.878  0.00  0.00    +0.174 C 
BRANCH  10  11
ATOM     11  CG  ARG A   1     -43.206 -10.472   9.026  0.00  0.00    +0.045 C 
BRANCH  11  12
ATOM     12  CB  ARG A   1     -42.107 -11.490   8.809  0.00  0.00    +0.029 C 
BRANCH  12  13
ATOM     13  CA  ARG A   1     -40.906 -10.928   8.062  0.00  0.00    +0.133 C 
BRANCH  13  14
ATOM     14  N   ARG A   1     -41.234 -10.710   6.656  0.00  0.00    -0.239 NA
ATOM     15  H   ARG A   1     -41.601 -11.506   6.096  0.00  0.00    +0.142 HD
ENDBRANCH  13  14
BRANCH  13  16
ATOM     16  C   ARG A   1     -39.691 -11.837   8.150  0.00  0.00    +0.224 C 
ATOM     17  O   ARG A   1     -39.399 -12.442   9.183  0.00  0.00    -0.287 OA
ENDBRANCH  13  16
ENDBRANCH  12  13
ENDBRANCH  11  12
ENDBRANCH  10  11
ENDBRANCH   1  10
TORSDOF 6
REMARK  Name = ../refined-set-2016/3hww/3hww_pocket.pdb
REMARK  117 active torsions:
REMARK  status: ('A' for Active; 'I' for Inactive)
REMARK    1  A    between atoms: _1  and  _3
REMARK    2  A    between atoms: _3  and  _4
REMARK    3  A    between atoms: _3  and  _6
REMARK    4  A    between atoms: _6  and  _7
REMARK    5  A    between atoms: _7  and  _8
REMARK    6  A    between atoms: _11  and  _13
REMARK    7  A    between atoms: _13  and  _14
REMARK    8  A    between atoms: _16  and  _18
REMARK    9  A    between atoms: _18  and  _19
REMARK   10  A    between atoms: _18  and  _21
REMARK   11  A    between atoms: _21  and  _22
REMARK   12  A    between atoms: _27  and  _29
REMARK   13  A    between atoms: _29  and  _30
REMARK   14  A    between atoms: _29  and  _32
REMARK   15  A    between atoms: _32  and  _33
REMARK   16  A    between atoms: _35  and  _37
REMARK   17  A    between atoms: _37  and  _38
REMARK   18  A    between atoms: _37  and  _40
REMARK   19  A    between atoms: _40  and  _41
REMARK   20  A    between atoms: _44  and  _46
REMARK   21  A    between atoms: _46  and  _47
REMARK   22  A    between atoms: _46  and  _49
REMARK   23  A    between atoms: _54  and  _55
REMARK   24  A    between atoms: _54  and  _57
REMARK   25  A    between atoms: _60  and  _62
REMARK   26  A    between atoms: _62  and  _63
REMARK   27  A    between atoms: _62  and  _65
REMARK   28  A    between atoms: _65  and  _66
REMARK   29  A    between atoms: _66  and  _67
REMARK   30  A    between atoms: _67  and  _68
REMARK   31  A    between atoms: _77  and  _79
REMARK   32  A    between atoms: _79  and  _80
REMARK   33  A    between atoms: _79  and  _82
REMARK   34  A    between atoms: _82  and  _83
REMARK   35  A    between atoms: _86  and  _88
REMARK   36  A    between atoms: _88  and  _89
REMARK   37  A    between atoms: _88  and  _91
REMARK   38  A    between atoms: _91  and  _92
REMARK   39  A    between atoms: _92  and  _93
REMARK   40  A    between atoms: _93  and  _94
REMARK   41  A    between atoms: _103  and  _105
REMARK   42  A    between atoms: _105  and  _106
REMARK   43  A    between atoms: _108  and  _110
REMARK   44  A    between atoms: _110  and  _111
REMARK   45  A    between atoms: _110  and  _113
REMARK   46  A    between atoms: _113  and  _114
REMARK   47  A    between atoms: _117  and  _119
REMARK   48  A    between atoms: _119  and  _120
REMARK   49  A    between atoms: _119  and  _122
REMARK   50  A    between atoms: _122  and  _123
REMARK   51  A    between atoms: _126  and  _128
REMARK   52  A    between atoms: _128  and  _129
REMARK   53  A    between atoms: _128  and  _131
REMARK   54  A    between atoms: _134  and  _136
REMARK   55  A    between atoms: _136  and  _137
REMARK   56  A    between atoms: _139  and  _141
REMARK   57  A    between atoms: _141  and  _142
REMARK   58  A    between atoms: _141  and  _144
REMARK   59  A    between atoms: _144  and  _145
REMARK   60  A    between atoms: _145  and  _146
REMARK   61  A    between atoms: _146  and  MG_294
REMARK   62  A    between atoms: _148  and  _150
REMARK   63  A    between atoms: _150  and  _151
REMARK   64  A    between atoms: _150  and  _153
REMARK   65  A    between atoms: _153  and  _154
REMARK   66  A    between atoms: _157  and  _159
REMARK   67  A    between atoms: _159  and  _160
REMARK   68  A    between atoms: _159  and  _162
REMARK   69  A    between atoms: _162  and  _163
REMARK   70  A    between atoms: _165  and  _167
REMARK   71  A    between atoms: _167  and  _168
REMARK   72  A    between atoms: _171  and  _173
REMARK   73  A    between atoms: _173  and  _174
REMARK   74  A    between atoms: _173  and  _176
REMARK   75  A    between atoms: _176  and  _177
REMARK   76  A    between atoms: _180  and  _182
REMARK   77  A    between atoms: _182  and  _183
REMARK   78  A    between atoms: _182  and  _185
REMARK   79  A    between atoms: _185  and  _186
REMARK   80  A    between atoms: _191  and  _192
REMARK   81  A    between atoms: _194  and  _196
REMARK   82  A    between atoms: _196  and  _197
REMARK   83  A    between atoms: _196  and  _199
REMARK   84  A    between atoms: _202  and  _204
REMARK   85  A    between atoms: _204  and  _205
REMARK   86  A    between atoms: _204  and  _207
REMARK   87  A    between atoms: _210  and  _212
REMARK   88  A    between atoms: _212  and  _213
REMARK   89  A    between atoms: _212  and  _215
REMARK   90  A    between atoms: _215  and  _216
REMARK   91  A    between atoms: _221  and  _223
REMARK   92  A    between atoms: _223  and  _224
REMARK   93  A    between atoms: _223  and  _226
REMARK   94  A    between atoms: _226  and  _227
REMARK   95  A    between atoms: _232  and  _234
REMARK   96  A    between atoms: _234  and  _235
REMARK   97  A    between atoms: _234  and  _237
REMARK   98  A    between atoms: _237  and  _238
REMARK   99  A    between atoms: _243  and  _245
REMARK  100  A    between atoms: _245  and  _246
REMARK  101  A    between atoms: _248  and  _250
REMARK  102  A    between atoms: _250  and  _251
REMARK  103  A    between atoms: _250  and  _253
REMARK  104  A    between atoms: _253  and  _254
REMARK  105  A    between atoms: _260  and  _262
REMARK  106  A    between atoms: _262  and  _263
REMARK  107  A    between atoms: _262  and  _265
REMARK  108  A    between atoms: _268  and  _270
REMARK  109  A    between atoms: _270  and  _271
REMARK  110  A    between atoms: _270  and  _273
REMARK  111  A    between atoms: _273  and  _274
REMARK  112  A    between atoms: _279  and  _281
REMARK  113  A    between atoms: _281  and  _282
REMARK  114  A    between atoms: _281  and  _284
REMARK  115  A    between atoms: _284  and  _285
REMARK  116  A    between atoms: _288  and  _290
REMARK  117  A    between atoms: _290  and  _291
REMARK                            x       y       z     vdW  Elec       q    Type
REMARK                         _______ _______ _______ _____ _____    ______ ____
ROOT
ATOM      1  C   GLY A   1     -37.916  -3.737   6.280  0.00  0.00    +0.240 C 
ATOM      2  N   ILE A   2     -37.677  -2.424   6.391  0.00  0.00    -0.298 N 
ATOM      3  H   ILE A   2     -36.730  -2.066   6.628  0.00  0.00    +0.150 HD
ATOM      4  O   GLY A   1     -39.078  -4.200   6.127  0.00  0.00    -0.274 OA
ENDROOT
BRANCH   1   5
ATOM      5  CA  GLY A   1     -36.729  -4.682   6.393  0.00  0.00    +0.169 C 
BRANCH   5   6
ATOM      6  N   GLY A   1     -37.184  -5.981   6.938  0.00  0.00    -0.236 NA
ATOM      7  H   GLY A   1     -37.036  -6.845   6.378  0.00  0.00    +0.142 HD
ENDBRANCH   5   6
ENDBRANCH   1   5
BRANCH   2   8
ATOM      8  CA  ILE A   2     -38.797  -1.512   6.167  0.00  0.00    +0.137 C 
BRANCH   8   9
ATOM      9  CB  ILE A   2     -39.107  -0.588   7.396  0.00  0.00    +0.026 C 
ATOM     10  CG2 ILE A   2     -39.395  -1.391   8.682  0.00  0.00    +0.002 C 
BRANCH   9  11
ATOM     11  CG1 ILE A   2     -37.959   0.349   7.692  0.00  0.00    +0.002 C 
ATOM     12  CD1 ILE A   2     -38.489   1.647   8.381  0.00  0.00    +0.000 C 
ENDBRANCH   9  11
ENDBRANCH   8   9
BRANCH   8  13
ATOM     13  C   ILE A   2     -38.504  -0.747   4.889  0.00  0.00    +0.227 C 
ATOM     14  O   ILE A   2     -39.115   0.298   4.577  0.00  0.00    -0.286 OA
ENDBRANCH   8  13
ENDBRANCH   2   8
TORSDOF 6
REMARK  Name = ../refined-set-2016/3hww/3hww_pocket.pdb
REMARK  117 active torsions:
REMARK  status: ('A' for Active; 'I' for Inactive)
REMARK    1  A    between atoms: _1  and  _3
REMARK    2  A    between atoms: _3  and  _4
REMARK    3  A    between atoms: _3  and  _6
REMARK    4  A    between atoms: _6  and  _7
REMARK    5  A    between atoms: _7  and  _8
REMARK    6  A    between atoms: _11  and  _13
REMARK    7  A    between atoms: _13  and  _14
REMARK    8  A    between atoms: _16  and  _18
REMARK    9  A    between atoms: _18  and  _19
REMARK   10  A    between atoms: _18  and  _21
REMARK   11  A    between atoms: _21  and  _22
REMARK   12  A    between atoms: _27  and  _29
REMARK   13  A    between atoms: _29  and  _30
REMARK   14  A    between atoms: _29  and  _32
REMARK   15  A    between atoms: _32  and  _33
REMARK   16  A    between atoms: _35  and  _37
REMARK   17  A    between atoms: _37  and  _38
REMARK   18  A    between atoms: _37  and  _40
REMARK   19  A    between atoms: _40  and  _41
REMARK   20  A    between atoms: _44  and  _46
REMARK   21  A    between atoms: _46  and  _47
REMARK   22  A    between atoms: _46  and  _49
REMARK   23  A    between atoms: _54  and  _55
REMARK   24  A    between atoms: _54  and  _57
REMARK   25  A    between atoms: _60  and  _62
REMARK   26  A    between atoms: _62  and  _63
REMARK   27  A    between atoms: _62  and  _65
REMARK   28  A    between atoms: _65  and  _66
REMARK   29  A    between atoms: _66  and  _67
REMARK   30  A    between atoms: _67  and  _68
REMARK   31  A    between atoms: _77  and  _79
REMARK   32  A    between atoms: _79  and  _80
REMARK   33  A    between atoms: _79  and  _82
REMARK   34  A    between atoms: _82  and  _83
REMARK   35  A    between atoms: _86  and  _88
REMARK   36  A    between atoms: _88  and  _89
REMARK   37  A    between atoms: _88  and  _91
REMARK   38  A    between atoms: _91  and  _92
REMARK   39  A    between atoms: _92  and  _93
REMARK   40  A    between atoms: _93  and  _94
REMARK   41  A    between atoms: _103  and  _105
REMARK   42  A    between atoms: _105  and  _106
REMARK   43  A    between atoms: _108  and  _110
REMARK   44  A    between atoms: _110  and  _111
REMARK   45  A    between atoms: _110  and  _113
REMARK   46  A    between atoms: _113  and  _114
REMARK   47  A    between atoms: _117  and  _119
REMARK   48  A    between atoms: _119  and  _120
REMARK   49  A    between atoms: _119  and  _122
REMARK   50  A    between atoms: _122  and  _123
REMARK   51  A    between atoms: _126  and  _128
REMARK   52  A    between atoms: _128  and  _129
REMARK   53  A    between atoms: _128  and  _131
REMARK   54  A    between atoms: _134  and  _136
REMARK   55  A    between atoms: _136  and  _137
REMARK   56  A    between atoms: _139  and  _141
REMARK   57  A    between atoms: _141  and  _142
REMARK   58  A    between atoms: _141  and  _144
REMARK   59  A    between atoms: _144  and  _145
REMARK   60  A    between atoms: _145  and  _146
REMARK   61  A    between atoms: _146  and  MG_294
REMARK   62  A    between atoms: _148  and  _150
REMARK   63  A    between atoms: _150  and  _151
REMARK   64  A    between atoms: _150  and  _153
REMARK   65  A    between atoms: _153  and  _154
REMARK   66  A    between atoms: _157  and  _159
REMARK   67  A    between atoms: _159  and  _160
REMARK   68  A    between atoms: _159  and  _162
REMARK   69  A    between atoms: _162  and  _163
REMARK   70  A    between atoms: _165  and  _167
REMARK   71  A    between atoms: _167  and  _168
REMARK   72  A    between atoms: _171  and  _173
REMARK   73  A    between atoms: _173  and  _174
REMARK   74  A    between atoms: _173  and  _176
REMARK   75  A    between atoms: _176  and  _177
REMARK   76  A    between atoms: _180  and  _182
REMARK   77  A    between atoms: _182  and  _183
REMARK   78  A    between atoms: _182  and  _185
REMARK   79  A    between atoms: _185  and  _186
REMARK   80  A    between atoms: _191  and  _192
REMARK   81  A    between atoms: _194  and  _196
REMARK   82  A    between atoms: _196  and  _197
REMARK   83  A    between atoms: _196  and  _199
REMARK   84  A    between atoms: _202  and  _204
REMARK   85  A    between atoms: _204  and  _205
REMARK   86  A    between atoms: _204  and  _207
REMARK   87  A    between atoms: _210  and  _212
REMARK   88  A    between atoms: _212  and  _213
REMARK   89  A    between atoms: _212  and  _215
REMARK   90  A    between atoms: _215  and  _216
REMARK   91  A    between atoms: _221  and  _223
REMARK   92  A    between atoms: _223  and  _224
REMARK   93  A    between atoms: _223  and  _226
REMARK   94  A    between atoms: _226  and  _227
REMARK   95  A    between atoms: _232  and  _234
REMARK   96  A    between atoms: _234  and  _235
REMARK   97  A    between atoms: _234  and  _237
REMARK   98  A    between atoms: _237  and  _238
REMARK   99  A    between atoms: _243  and  _245
REMARK  100  A    between atoms: _245  and  _246
REMARK  101  A    between atoms: _248  and  _250
REMARK  102  A    between atoms: _250  and  _251
REMARK  103  A    between atoms: _250  and  _253
REMARK  104  A    between atoms: _253  and  _254
REMARK  105  A    between atoms: _260  and  _262
REMARK  106  A    between atoms: _262  and  _263
REMARK  107  A    between atoms: _262  and  _265
REMARK  108  A    between atoms: _268  and  _270
REMARK  109  A    between atoms: _270  and  _271
REMARK  110  A    between atoms: _270  and  _273
REMARK  111  A    between atoms: _273  and  _274
REMARK  112  A    between atoms: _279  and  _281
REMARK  113  A    between atoms: _281  and  _282
REMARK  114  A    between atoms: _281  and  _284
REMARK  115  A    between atoms: _284  and  _285
REMARK  116  A    between atoms: _288  and  _290
REMARK  117  A    between atoms: _290  and  _291
REMARK                            x       y       z     vdW  Elec       q    Type
REMARK                         _______ _______ _______ _____ _____    ______ ____
ROOT
ATOM      1  CA  LEU A   1     -42.885  -2.554   1.638  0.00  0.00    +0.133 C 
ENDROOT
BRANCH   1   2
ATOM      2  N   LEU A   1     -41.581  -2.027   1.366  0.00  0.00    -0.239 NA
ATOM      3  H   LEU A   1     -41.227  -1.171   1.838  0.00  0.00    +0.142 HD
ENDBRANCH   1   2
BRANCH   1   4
ATOM      4  C   LEU A   1     -43.865  -2.210   0.549  0.00  0.00    +0.224 C 
ATOM      5  O   LEU A   1     -44.753  -2.978   0.273  0.00  0.00    -0.287 OA
ENDBRANCH   1   4
BRANCH   1   6
ATOM      6  CB  LEU A   1     -43.379  -2.197   3.028  0.00  0.00    +0.025 C 
BRANCH   6   7
ATOM      7  CG  LEU A   1     -42.562  -2.882   4.102  0.00  0.00    +0.002 C 
ATOM      8  CD2 LEU A   1     -42.941  -2.305   5.385  0.00  0.00    +0.000 C 
ATOM      9  CD1 LEU A   1     -42.601  -4.427   4.143  0.00  0.00    +0.000 C 
ENDBRANCH   6   7
ENDBRANCH   1   6
TORSDOF 4
REMARK  Name = ../refined-set-2016/3hww/3hww_pocket.pdb
REMARK  117 active torsions:
REMARK  status: ('A' for Active; 'I' for Inactive)
REMARK    1  A    between atoms: _1  and  _3
REMARK    2  A    between atoms: _3  and  _4
REMARK    3  A    between atoms: _3  and  _6
REMARK    4  A    between atoms: _6  and  _7
REMARK    5  A    between atoms: _7  and  _8
REMARK    6  A    between atoms: _11  and  _13
REMARK    7  A    between atoms: _13  and  _14
REMARK    8  A    between atoms: _16  and  _18
REMARK    9  A    between atoms: _18  and  _19
REMARK   10  A    between atoms: _18  and  _21
REMARK   11  A    between atoms: _21  and  _22
REMARK   12  A    between atoms: _27  and  _29
REMARK   13  A    between atoms: _29  and  _30
REMARK   14  A    between atoms: _29  and  _32
REMARK   15  A    between atoms: _32  and  _33
REMARK   16  A    between atoms: _35  and  _37
REMARK   17  A    between atoms: _37  and  _38
REMARK   18  A    between atoms: _37  and  _40
REMARK   19  A    between atoms: _40  and  _41
REMARK   20  A    between atoms: _44  and  _46
REMARK   21  A    between atoms: _46  and  _47
REMARK   22  A    between atoms: _46  and  _49
REMARK   23  A    between atoms: _54  and  _55
REMARK   24  A    between atoms: _54  and  _57
REMARK   25  A    between atoms: _60  and  _62
REMARK   26  A    between atoms: _62  and  _63
REMARK   27  A    between atoms: _62  and  _65
REMARK   28  A    between atoms: _65  and  _66
REMARK   29  A    between atoms: _66  and  _67
REMARK   30  A    between atoms: _67  and  _68
REMARK   31  A    between atoms: _77  and  _79
REMARK   32  A    between atoms: _79  and  _80
REMARK   33  A    between atoms: _79  and  _82
REMARK   34  A    between atoms: _82  and  _83
REMARK   35  A    between atoms: _86  and  _88
REMARK   36  A    between atoms: _88  and  _89
REMARK   37  A    between atoms: _88  and  _91
REMARK   38  A    between atoms: _91  and  _92
REMARK   39  A    between atoms: _92  and  _93
REMARK   40  A    between atoms: _93  and  _94
REMARK   41  A    between atoms: _103  and  _105
REMARK   42  A    between atoms: _105  and  _106
REMARK   43  A    between atoms: _108  and  _110
REMARK   44  A    between atoms: _110  and  _111
REMARK   45  A    between atoms: _110  and  _113
REMARK   46  A    between atoms: _113  and  _114
REMARK   47  A    between atoms: _117  and  _119
REMARK   48  A    between atoms: _119  and  _120
REMARK   49  A    between atoms: _119  and  _122
REMARK   50  A    between atoms: _122  and  _123
REMARK   51  A    between atoms: _126  and  _128
REMARK   52  A    between atoms: _128  and  _129
REMARK   53  A    between atoms: _128  and  _131
REMARK   54  A    between atoms: _134  and  _136
REMARK   55  A    between atoms: _136  and  _137
REMARK   56  A    between atoms: _139  and  _141
REMARK   57  A    between atoms: _141  and  _142
REMARK   58  A    between atoms: _141  and  _144
REMARK   59  A    between atoms: _144  and  _145
REMARK   60  A    between atoms: _145  and  _146
REMARK   61  A    between atoms: _146  and  MG_294
REMARK   62  A    between atoms: _148  and  _150
REMARK   63  A    between atoms: _150  and  _151
REMARK   64  A    between atoms: _150  and  _153
REMARK   65  A    between atoms: _153  and  _154
REMARK   66  A    between atoms: _157  and  _159
REMARK   67  A    between atoms: _159  and  _160
REMARK   68  A    between atoms: _159  and  _162
REMARK   69  A    between atoms: _162  and  _163
REMARK   70  A    between atoms: _165  and  _167
REMARK   71  A    between atoms: _167  and  _168
REMARK   72  A    between atoms: _171  and  _173
REMARK   73  A    between atoms: _173  and  _174
REMARK   74  A    between atoms: _173  and  _176
REMARK   75  A    between atoms: _176  and  _177
REMARK   76  A    between atoms: _180  and  _182
REMARK   77  A    between atoms: _182  and  _183
REMARK   78  A    between atoms: _182  and  _185
REMARK   79  A    between atoms: _185  and  _186
REMARK   80  A    between atoms: _191  and  _192
REMARK   81  A    between atoms: _194  and  _196
REMARK   82  A    between atoms: _196  and  _197
REMARK   83  A    between atoms: _196  and  _199
REMARK   84  A    between atoms: _202  and  _204
REMARK   85  A    between atoms: _204  and  _205
REMARK   86  A    between atoms: _204  and  _207
REMARK   87  A    between atoms: _210  and  _212
REMARK   88  A    between atoms: _212  and  _213
REMARK   89  A    between atoms: _212  and  _215
REMARK   90  A    between atoms: _215  and  _216
REMARK   91  A    between atoms: _221  and  _223
REMARK   92  A    between atoms: _223  and  _224
REMARK   93  A    between atoms: _223  and  _226
REMARK   94  A    between atoms: _226  and  _227
REMARK   95  A    between atoms: _232  and  _234
REMARK   96  A    between atoms: _234  and  _235
REMARK   97  A    between atoms: _234  and  _237
REMARK   98  A    between atoms: _237  and  _238
REMARK   99  A    between atoms: _243  and  _245
REMARK  100  A    between atoms: _245  and  _246
REMARK  101  A    between atoms: _248  and  _250
REMARK  102  A    between atoms: _250  and  _251
REMARK  103  A    between atoms: _250  and  _253
REMARK  104  A    between atoms: _253  and  _254
REMARK  105  A    between atoms: _260  and  _262
REMARK  106  A    between atoms: _262  and  _263
REMARK  107  A    between atoms: _262  and  _265
REMARK  108  A    between atoms: _268  and  _270
REMARK  109  A    between atoms: _270  and  _271
REMARK  110  A    between atoms: _270  and  _273
REMARK  111  A    between atoms: _273  and  _274
REMARK  112  A    between atoms: _279  and  _281
REMARK  113  A    between atoms: _281  and  _282
REMARK  114  A    between atoms: _281  and  _284
REMARK  115  A    between atoms: _284  and  _285
REMARK  116  A    between atoms: _288  and  _290
REMARK  117  A    between atoms: _290  and  _291
REMARK                            x       y       z     vdW  Elec       q    Type
REMARK                         _______ _______ _______ _____ _____    ______ ____
ROOT
ATOM      1  C   LEU A   4     -41.106   4.709   6.577  0.00  0.00    +0.000 C 
ATOM      2  N   SER A   5     -41.899   3.647   6.551  0.00  0.00    +0.000 N 
ATOM      3  H   SER A   5     -42.607   3.525   7.303  0.00  0.00    +0.000 HD
ATOM      4  O   LEU A   4     -40.297   4.931   5.710  0.00  0.00    +0.000 OA
ENDROOT
BRANCH   2   5
ATOM      5  CA  SER A   5     -41.803   2.635   5.483  0.00  0.00    +0.000 C 
BRANCH   5   6
ATOM      6  C   SER A   5     -42.257   3.221   4.157  0.00  0.00    +0.000 C 
ATOM      7  N   ALA A   6     -43.146   4.210   4.263  0.00  0.00    +0.000 N 
ATOM      8  H   ALA A   6     -43.383   4.554   5.215  0.00  0.00    +0.000 HD
ATOM      9  O   SER A   5     -41.763   2.861   3.084  0.00  0.00    +0.000 OA
BRANCH   7  10
ATOM     10  CA  ALA A   6     -43.797   4.830   3.139  0.00  0.00    +0.000 C 
ATOM     11  CB  ALA A   6     -45.066   5.520   3.604  0.00  0.00    +0.000 C 
BRANCH  10  12
ATOM     12  C   ALA A   6     -42.851   5.835   2.600  0.00  0.00    +0.000 C 
ATOM     13  N   LEU A   7     -42.149   6.541   3.482  0.00  0.00    +0.000 N 
ATOM     14  H   LEU A   7     -42.328   6.421   4.499  0.00  0.00    +0.000 HD
ATOM     15  O   ALA A   6     -42.766   5.997   1.394  0.00  0.00    +0.000 OA
BRANCH  13  16
ATOM     16  CA  LEU A   7     -41.149   7.465   3.040  0.00  0.00    +0.000 C 
BRANCH  16  17
ATOM     17  C   LEU A   7     -39.962   6.705   2.439  0.00  0.00    +0.000 C 
ATOM     18  N   TYR A   8     -39.560   5.621   3.121  0.00  0.00    +0.000 N 
ATOM     19  H   TYR A   8     -40.021   5.380   4.022  0.00  0.00    +0.000 HD
ATOM     20  O   LEU A   7     -39.381   7.111   1.392  0.00  0.00    +0.000 OA
BRANCH  18  21
ATOM     21  CA  TYR A   8     -38.477   4.772   2.609  0.00  0.00    +0.000 C 
BRANCH  21  22
ATOM     22  C   TYR A   8     -38.667   4.380   1.115  0.00  0.00    +0.000 C 
ATOM     23  O   TYR A   8     -37.743   4.544   0.274  0.00  0.00    +0.000 OA
ENDBRANCH  21  22
BRANCH  21  24
ATOM     24  CB  TYR A   8     -38.393   3.491   3.458  0.00  0.00    +0.000 C 
BRANCH  24  25
ATOM     25  CG  TYR A   8     -36.971   2.999   3.720  0.00  0.00    +0.000 A 
ATOM     26  CD2 TYR A   8     -36.484   2.801   5.034  0.00  0.00    +0.000 A 
ATOM     27  CE2 TYR A   8     -35.184   2.322   5.258  0.00  0.00    +0.000 A 
ATOM     28  CZ  TYR A   8     -34.385   2.063   4.154  0.00  0.00    +0.000 A 
ATOM     29  CE1 TYR A   8     -34.872   2.250   2.859  0.00  0.00    +0.000 A 
ATOM     30  CD1 TYR A   8     -36.146   2.711   2.665  0.00  0.00    +0.000 A 
BRANCH  28  31
ATOM     31  OH  TYR A   8     -33.094   1.591   4.230  0.00  0.00    +0.000 OA
ATOM     32  HH  TYR A   8     -32.538   2.235   4.736  0.00  0.00    +0.000 HD
ENDBRANCH  28  31
ENDBRANCH  24  25
ENDBRANCH  21  24
ENDBRANCH  18  21
ENDBRANCH  16  17
BRANCH  16  33
ATOM     33  CB  LEU A   7     -40.675   8.308   4.214  0.00  0.00    +0.000 C 
BRANCH  33  34
ATOM     34  CG  LEU A   7     -41.551   9.446   4.727  0.00  0.00    +0.000 C 
ATOM     35  CD2 LEU A   7     -41.130   9.918   6.109  0.00  0.00    +0.000 C 
ATOM     36  CD1 LEU A   7     -41.486  10.615   3.714  0.00  0.00    +0.000 C 
ENDBRANCH  33  34
ENDBRANCH  16  33
ENDBRANCH  13  16
ENDBRANCH  10  12
ENDBRANCH   7  10
ENDBRANCH   5   6
BRANCH   5  37
ATOM     37  CB  SER A   5     -42.672   1.471   5.823  0.00  0.00    +0.000 C 
BRANCH  37  38
ATOM     38  OG  SER A   5     -42.373   0.992   7.125  0.00  0.00    +0.000 OA
ATOM     39  H   SER A   5     -42.528   1.714   7.785  0.00  0.00    +0.000 HD
ENDBRANCH  37  38
ENDBRANCH   5  37
ENDBRANCH   2   5
BRANCH   1  40
ATOM     40  CA  LEU A   4     -41.264   5.674   7.717  0.00  0.00    +0.000 C 
BRANCH  40  42
ATOM     41  C   UNK A   3     -43.521   6.285   7.317  0.00  0.00    +0.000 C 
ATOM     42  N   LEU A   4     -42.647   5.789   8.168  0.00  0.00    +0.000 N 
ATOM     43  H   LEU A   4     -42.931   5.491   9.123  0.00  0.00    +0.000 HD
ATOM     44  O   UNK A   3     -43.158   6.679   6.264  0.00  0.00    +0.000 OA
BRANCH  41  45
ATOM     45  C   UNK A   3     -44.992   6.443   7.688  0.00  0.00    +0.000 C 
BRANCH  45  47
ATOM     46  C   GLY A   2     -45.591   4.104   8.056  0.00  0.00    +0.000 C 
ATOM     47  N   UNK A   3     -45.491   5.340   8.538  0.00  0.00    +0.000 N 
ATOM     48  H   UNK A   3     -45.766   5.533   9.522  0.00  0.00    +0.000 HD
ATOM     49  O   GLY A   2     -45.261   3.856   6.927  0.00  0.00    +0.000 OA
BRANCH  46  50
ATOM     50  CA  GLY A   2     -46.105   3.001   8.962  0.00  0.00    +0.000 C 
BRANCH  50  52
ATOM     51  C   VAL A   1     -47.493   1.538   7.579  0.00  0.00    +0.000 C 
ATOM     52  N   GLY A   2     -46.313   1.783   8.174  0.00  0.00    +0.000 N 
ATOM     53  H   GLY A   2     -45.536   1.098   8.074  0.00  0.00    +0.000 HD
ATOM     54  O   VAL A   1     -48.514   2.180   7.887  0.00  0.00    +0.000 OA
BRANCH  51  55
ATOM     55  CA  VAL A   1     -47.614   0.289   6.614  0.00  0.00    +0.000 C 
BRANCH  55  56
ATOM     56  CB  VAL A   1     -47.210   0.508   5.166  0.00  0.00    +0.000 C 
ATOM     57  CG2 VAL A   1     -46.671   1.871   4.846  0.00  0.00    +0.000 C 
ATOM     58  CG1 VAL A   1     -46.364  -0.658   4.641  0.00  0.00    +0.000 C 
ENDBRANCH  55  56
BRANCH  55  59
ATOM     59  N   VAL A   1     -48.998  -0.121   6.575  0.00  0.00    +0.000 NA
ATOM     60  H   VAL A   1     -49.724   0.622   6.619  0.00  0.00    +0.000 HD
ENDBRANCH  55  59
ENDBRANCH  51  55
ENDBRANCH  50  52
ENDBRANCH  46  50
ENDBRANCH  45  47
BRANCH  45  61
ATOM     61  C   UNK A   3     -45.163   7.821   8.371  0.00  0.00    +0.000 C 
BRANCH  61  62
ATOM     62  C   UNK A   3     -44.524   7.868   9.784  0.00  0.00    +0.000 C 
ATOM     63  O   UNK A   3     -43.464   8.483   9.935  0.00  0.00    +0.000 OA
BRANCH  62  64
ATOM     64  O   UNK A   3     -45.075   7.262  10.732  0.00  0.00    +0.000 OA
BRANCH  64  65
ATOM     65 MG   UNK A   3     -44.293   5.533  12.173  0.00  0.00    +0.000 Mg
ATOM     66  O   UNK A   3     -46.152   4.167  12.274  0.00  0.00    +0.000 OA
ENDBRANCH  64  65
ENDBRANCH  62  64
ENDBRANCH  61  62
ENDBRANCH  45  61
ENDBRANCH  41  45
ENDBRANCH  40  42
BRANCH  40  67
ATOM     67  CB  LEU A   4     -40.295   5.253   8.827  0.00  0.00    +0.000 C 
BRANCH  67  68
ATOM     68  CG  LEU A   4     -39.798   6.270   9.865  0.00  0.00    +0.000 C 
ATOM     69  CD2 LEU A   4     -38.779   5.516  10.798  0.00  0.00    +0.000 C 
ATOM     70  CD1 LEU A   4     -39.222   7.591   9.311  0.00  0.00    +0.000 C 
ENDBRANCH  67  68
ENDBRANCH  40  67
ENDBRANCH   1  40
TORSDOF 30
REMARK  Name = ../refined-set-2016/3hww/3hww_pocket.pdb
REMARK  117 active torsions:
REMARK  status: ('A' for Active; 'I' for Inactive)
REMARK    1  A    between atoms: _1  and  _3
REMARK    2  A    between atoms: _3  and  _4
REMARK    3  A    between atoms: _3  and  _6
REMARK    4  A    between atoms: _6  and  _7
REMARK    5  A    between atoms: _7  and  _8
REMARK    6  A    between atoms: _11  and  _13
REMARK    7  A    between atoms: _13  and  _14
REMARK    8  A    between atoms: _16  and  _18
REMARK    9  A    between atoms: _18  and  _19
REMARK   10  A    between atoms: _18  and  _21
REMARK   11  A    between atoms: _21  and  _22
REMARK   12  A    between atoms: _27  and  _29
REMARK   13  A    between atoms: _29  and  _30
REMARK   14  A    between atoms: _29  and  _32
REMARK   15  A    between atoms: _32  and  _33
REMARK   16  A    between atoms: _35  and  _37
REMARK   17  A    between atoms: _37  and  _38
REMARK   18  A    between atoms: _37  and  _40
REMARK   19  A    between atoms: _40  and  _41
REMARK   20  A    between atoms: _44  and  _46
REMARK   21  A    between atoms: _46  and  _47
REMARK   22  A    between atoms: _46  and  _49
REMARK   23  A    between atoms: _54  and  _55
REMARK   24  A    between atoms: _54  and  _57
REMARK   25  A    between atoms: _60  and  _62
REMARK   26  A    between atoms: _62  and  _63
REMARK   27  A    between atoms: _62  and  _65
REMARK   28  A    between atoms: _65  and  _66
REMARK   29  A    between atoms: _66  and  _67
REMARK   30  A    between atoms: _67  and  _68
REMARK   31  A    between atoms: _77  and  _79
REMARK   32  A    between atoms: _79  and  _80
REMARK   33  A    between atoms: _79  and  _82
REMARK   34  A    between atoms: _82  and  _83
REMARK   35  A    between atoms: _86  and  _88
REMARK   36  A    between atoms: _88  and  _89
REMARK   37  A    between atoms: _88  and  _91
REMARK   38  A    between atoms: _91  and  _92
REMARK   39  A    between atoms: _92  and  _93
REMARK   40  A    between atoms: _93  and  _94
REMARK   41  A    between atoms: _103  and  _105
REMARK   42  A    between atoms: _105  and  _106
REMARK   43  A    between atoms: _108  and  _110
REMARK   44  A    between atoms: _110  and  _111
REMARK   45  A    between atoms: _110  and  _113
REMARK   46  A    between atoms: _113  and  _114
REMARK   47  A    between atoms: _117  and  _119
REMARK   48  A    between atoms: _119  and  _120
REMARK   49  A    between atoms: _119  and  _122
REMARK   50  A    between atoms: _122  and  _123
REMARK   51  A    between atoms: _126  and  _128
REMARK   52  A    between atoms: _128  and  _129
REMARK   53  A    between atoms: _128  and  _131
REMARK   54  A    between atoms: _134  and  _136
REMARK   55  A    between atoms: _136  and  _137
REMARK   56  A    between atoms: _139  and  _141
REMARK   57  A    between atoms: _141  and  _142
REMARK   58  A    between atoms: _141  and  _144
REMARK   59  A    between atoms: _144  and  _145
REMARK   60  A    between atoms: _145  and  _146
REMARK   61  A    between atoms: _146  and  MG_294
REMARK   62  A    between atoms: _148  and  _150
REMARK   63  A    between atoms: _150  and  _151
REMARK   64  A    between atoms: _150  and  _153
REMARK   65  A    between atoms: _153  and  _154
REMARK   66  A    between atoms: _157  and  _159
REMARK   67  A    between atoms: _159  and  _160
REMARK   68  A    between atoms: _159  and  _162
REMARK   69  A    between atoms: _162  and  _163
REMARK   70  A    between atoms: _165  and  _167
REMARK   71  A    between atoms: _167  and  _168
REMARK   72  A    between atoms: _171  and  _173
REMARK   73  A    between atoms: _173  and  _174
REMARK   74  A    between atoms: _173  and  _176
REMARK   75  A    between atoms: _176  and  _177
REMARK   76  A    between atoms: _180  and  _182
REMARK   77  A    between atoms: _182  and  _183
REMARK   78  A    between atoms: _182  and  _185
REMARK   79  A    between atoms: _185  and  _186
REMARK   80  A    between atoms: _191  and  _192
REMARK   81  A    between atoms: _194  and  _196
REMARK   82  A    between atoms: _196  and  _197
REMARK   83  A    between atoms: _196  and  _199
REMARK   84  A    between atoms: _202  and  _204
REMARK   85  A    between atoms: _204  and  _205
REMARK   86  A    between atoms: _204  and  _207
REMARK   87  A    between atoms: _210  and  _212
REMARK   88  A    between atoms: _212  and  _213
REMARK   89  A    between atoms: _212  and  _215
REMARK   90  A    between atoms: _215  and  _216
REMARK   91  A    between atoms: _221  and  _223
REMARK   92  A    between atoms: _223  and  _224
REMARK   93  A    between atoms: _223  and  _226
REMARK   94  A    between atoms: _226  and  _227
REMARK   95  A    between atoms: _232  and  _234
REMARK   96  A    between atoms: _234  and  _235
REMARK   97  A    between atoms: _234  and  _237
REMARK   98  A    between atoms: _237  and  _238
REMARK   99  A    between atoms: _243  and  _245
REMARK  100  A    between atoms: _245  and  _246
REMARK  101  A    between atoms: _248  and  _250
REMARK  102  A    between atoms: _250  and  _251
REMARK  103  A    between atoms: _250  and  _253
REMARK  104  A    between atoms: _253  and  _254
REMARK  105  A    between atoms: _260  and  _262
REMARK  106  A    between atoms: _262  and  _263
REMARK  107  A    between atoms: _262  and  _265
REMARK  108  A    between atoms: _268  and  _270
REMARK  109  A    between atoms: _270  and  _271
REMARK  110  A    between atoms: _270  and  _273
REMARK  111  A    between atoms: _273  and  _274
REMARK  112  A    between atoms: _279  and  _281
REMARK  113  A    between atoms: _281  and  _282
REMARK  114  A    between atoms: _281  and  _284
REMARK  115  A    between atoms: _284  and  _285
REMARK  116  A    between atoms: _288  and  _290
REMARK  117  A    between atoms: _290  and  _291
REMARK                            x       y       z     vdW  Elec       q    Type
REMARK                         _______ _______ _______ _____ _____    ______ ____
ROOT
ATOM      1  C   ASN A   3     -48.435   8.713  11.938  0.00  0.00    +0.241 C 
ATOM      2  N   ASN A   4     -47.346   8.440  12.640  0.00  0.00    -0.297 N 
ATOM      3  H   ASN A   4     -46.661   7.747  12.277  0.00  0.00    +0.150 HD
ATOM      4  O   ASN A   3     -49.378   9.347  12.388  0.00  0.00    -0.273 OA
ENDROOT
BRANCH   2   5
ATOM      5  CA  ASN A   4     -47.092   9.109  13.934  0.00  0.00    +0.158 C 
BRANCH   5   6
ATOM      6  C   ASN A   4     -45.882  10.054  13.981  0.00  0.00    +0.241 C 
ATOM      7  O   ASN A   4     -45.379  10.358  15.074  0.00  0.00    -0.273 OA
ATOM      8  N   ASN A   5     -45.404  10.465  12.802  0.00  0.00    -0.297 N 
ATOM      9  H   ASN A   5     -45.604   9.869  11.974  0.00  0.00    +0.150 HD
BRANCH   8  10
ATOM     10  CA  ASN A   5     -44.610  11.703  12.574  0.00  0.00    +0.158 C 
BRANCH  10  11
ATOM     11  C   ASN A   5     -43.182  11.851  13.150  0.00  0.00    +0.241 C 
ATOM     12  O   ASN A   5     -42.799  12.963  13.576  0.00  0.00    -0.273 OA
ATOM     13  N   GLY A   6     -42.377  10.785  13.144  0.00  0.00    -0.296 N 
ATOM     14  H   GLY A   6     -41.408  10.903  13.503  0.00  0.00    +0.150 HD
BRANCH  13  15
ATOM     15  CA  GLY A   6     -42.773   9.468  12.666  0.00  0.00    +0.163 C 
BRANCH  15  16
ATOM     16  C   GLY A   6     -42.323   8.396  13.644  0.00  0.00    +0.229 C 
ATOM     17  O   GLY A   6     -42.299   7.499  13.317  0.00  0.00    -0.286 OA
ENDBRANCH  15  16
ENDBRANCH  13  15
ENDBRANCH  10  11
BRANCH  10  18
ATOM     18  CB  ASN A   5     -45.456  12.945  12.942  0.00  0.00    +0.114 C 
BRANCH  18  19
ATOM     19  CG  ASN A   5     -46.460  13.310  11.862  0.00  0.00    +0.222 C 
ATOM     20  ND2 ASN A   5     -47.754  13.286  12.206  0.00  0.00    -0.329 N 
ATOM     21 HD21 ASN A   5     -48.029  13.036  13.177  0.00  0.00    +0.145 HD
ATOM     22 HD22 ASN A   5     -48.484  13.518  11.502  0.00  0.00    +0.145 HD
ATOM     23  OD1 ASN A   5     -46.074  13.600  10.724  0.00  0.00    -0.275 OA
ENDBRANCH  18  19
ENDBRANCH  10  18
ENDBRANCH   8  10
ENDBRANCH   5   6
BRANCH   5  24
ATOM     24  CB  ASN A   4     -47.007   8.090  15.056  0.00  0.00    +0.114 C 
BRANCH  24  25
ATOM     25  CG  ASN A   4     -45.916   7.099  14.845  0.00  0.00    +0.222 C 
ATOM     26  ND2 ASN A   4     -46.134   5.859  15.295  0.00  0.00    -0.329 N 
ATOM     27 HD21 ASN A   4     -47.032   5.627  15.765  0.00  0.00    +0.145 HD
ATOM     28 HD22 ASN A   4     -45.405   5.127  15.175  0.00  0.00    +0.145 HD
ATOM     29  OD1 ASN A   4     -44.873   7.433  14.281  0.00  0.00    -0.275 OA
ENDBRANCH  24  25
ENDBRANCH   5  24
ENDBRANCH   2   5
BRANCH   1  30
ATOM     30  CA  ASN A   3     -48.479   8.228  10.525  0.00  0.00    +0.158 C 
BRANCH  30  33
ATOM     31  C   VAL A   2     -49.087   5.866  10.239  0.00  0.00    +0.241 C 
ATOM     32  O   VAL A   2     -47.557   5.425  10.475  0.00  0.00    -0.273 OA
ATOM     33  N   ASN A   3     -49.439   7.136  10.418  0.00  0.00    -0.297 N 
ATOM     34  H   ASN A   3     -50.452   7.362  10.485  0.00  0.00    +0.150 HD
BRANCH  31  35
ATOM     35  CA  VAL A   2     -50.234   4.891   9.933  0.00  0.00    +0.148 C 
BRANCH  35  37
ATOM     36  C   VAL A   1     -50.557   5.245   7.577  0.00  0.00    +0.238 C 
ATOM     37  N   VAL A   2     -50.131   4.449   8.561  0.00  0.00    -0.297 N 
ATOM     38  H   VAL A   2     -49.727   3.516   8.341  0.00  0.00    +0.150 HD
ATOM     39  O   VAL A   1     -51.182   6.293   7.791  0.00  0.00    -0.274 OA
BRANCH  36  40
ATOM     40  CA  VAL A   1     -50.272   4.783   6.126  0.00  0.00    +0.145 C 
BRANCH  40  41
ATOM     41  CB  VAL A   1     -49.605   5.878   5.309  0.00  0.00    +0.025 C 
ATOM     42  CG2 VAL A   1     -48.262   6.338   5.977  0.00  0.00    +0.002 C 
ATOM     43  CG1 VAL A   1     -49.380   5.405   3.920  0.00  0.00    +0.002 C 
ENDBRANCH  40  41
BRANCH  40  44
ATOM     44  N   VAL A   1     -51.540   4.365   5.539  0.00  0.00    -0.238 NA
ATOM     45  H   VAL A   1     -52.236   5.065   5.211  0.00  0.00    +0.142 HD
ENDBRANCH  40  44
ENDBRANCH  36  40
ENDBRANCH  35  37
BRANCH  35  46
ATOM     46  CB  VAL A   2     -50.302   3.687  10.868  0.00  0.00    +0.027 C 
ATOM     47  CG2 VAL A   2     -50.369   4.144  12.350  0.00  0.00    +0.002 C 
ATOM     48  CG1 VAL A   2     -51.486   2.750  10.487  0.00  0.00    +0.002 C 
ENDBRANCH  35  46
ENDBRANCH  31  35
ENDBRANCH  30  33
BRANCH  30  49
ATOM     49  CB  ASN A   3     -48.869   9.432   9.607  0.00  0.00    +0.114 C 
BRANCH  49  50
ATOM     50  CG  ASN A   3     -47.706  10.444   9.406  0.00  0.00    +0.222 C 
ATOM     51  OD1 ASN A   3     -46.724  10.440  10.145  0.00  0.00    -0.275 OA
ATOM     52  ND2 ASN A   3     -47.814  11.290   8.390  0.00  0.00    -0.329 N 
ATOM     53 HD21 ASN A   3     -47.055  11.975   8.201  0.00  0.00    +0.145 HD
ATOM     54 HD22 ASN A   3     -48.658  11.268   7.783  0.00  0.00    +0.145 HD
ENDBRANCH  49  50
ENDBRANCH  30  49
ENDBRANCH   1  30
TORSDOF 20
REMARK  Name = ../refined-set-2016/3hww/3hww_pocket.pdb
REMARK  117 active torsions:
REMARK  status: ('A' for Active; 'I' for Inactive)
REMARK    1  A    between atoms: _1  and  _3
REMARK    2  A    between atoms: _3  and  _4
REMARK    3  A    between atoms: _3  and  _6
REMARK    4  A    between atoms: _6  and  _7
REMARK    5  A    between atoms: _7  and  _8
REMARK    6  A    between atoms: _11  and  _13
REMARK    7  A    between atoms: _13  and  _14
REMARK    8  A    between atoms: _16  and  _18
REMARK    9  A    between atoms: _18  and  _19
REMARK   10  A    between atoms: _18  and  _21
REMARK   11  A    between atoms: _21  and  _22
REMARK   12  A    between atoms: _27  and  _29
REMARK   13  A    between atoms: _29  and  _30
REMARK   14  A    between atoms: _29  and  _32
REMARK   15  A    between atoms: _32  and  _33
REMARK   16  A    between atoms: _35  and  _37
REMARK   17  A    between atoms: _37  and  _38
REMARK   18  A    between atoms: _37  and  _40
REMARK   19  A    between atoms: _40  and  _41
REMARK   20  A    between atoms: _44  and  _46
REMARK   21  A    between atoms: _46  and  _47
REMARK   22  A    between atoms: _46  and  _49
REMARK   23  A    between atoms: _54  and  _55
REMARK   24  A    between atoms: _54  and  _57
REMARK   25  A    between atoms: _60  and  _62
REMARK   26  A    between atoms: _62  and  _63
REMARK   27  A    between atoms: _62  and  _65
REMARK   28  A    between atoms: _65  and  _66
REMARK   29  A    between atoms: _66  and  _67
REMARK   30  A    between atoms: _67  and  _68
REMARK   31  A    between atoms: _77  and  _79
REMARK   32  A    between atoms: _79  and  _80
REMARK   33  A    between atoms: _79  and  _82
REMARK   34  A    between atoms: _82  and  _83
REMARK   35  A    between atoms: _86  and  _88
REMARK   36  A    between atoms: _88  and  _89
REMARK   37  A    between atoms: _88  and  _91
REMARK   38  A    between atoms: _91  and  _92
REMARK   39  A    between atoms: _92  and  _93
REMARK   40  A    between atoms: _93  and  _94
REMARK   41  A    between atoms: _103  and  _105
REMARK   42  A    between atoms: _105  and  _106
REMARK   43  A    between atoms: _108  and  _110
REMARK   44  A    between atoms: _110  and  _111
REMARK   45  A    between atoms: _110  and  _113
REMARK   46  A    between atoms: _113  and  _114
REMARK   47  A    between atoms: _117  and  _119
REMARK   48  A    between atoms: _119  and  _120
REMARK   49  A    between atoms: _119  and  _122
REMARK   50  A    between atoms: _122  and  _123
REMARK   51  A    between atoms: _126  and  _128
REMARK   52  A    between atoms: _128  and  _129
REMARK   53  A    between atoms: _128  and  _131
REMARK   54  A    between atoms: _134  and  _136
REMARK   55  A    between atoms: _136  and  _137
REMARK   56  A    between atoms: _139  and  _141
REMARK   57  A    between atoms: _141  and  _142
REMARK   58  A    between atoms: _141  and  _144
REMARK   59  A    between atoms: _144  and  _145
REMARK   60  A    between atoms: _145  and  _146
REMARK   61  A    between atoms: _146  and  MG_294
REMARK   62  A    between atoms: _148  and  _150
REMARK   63  A    between atoms: _150  and  _151
REMARK   64  A    between atoms: _150  and  _153
REMARK   65  A    between atoms: _153  and  _154
REMARK   66  A    between atoms: _157  and  _159
REMARK   67  A    between atoms: _159  and  _160
REMARK   68  A    between atoms: _159  and  _162
REMARK   69  A    between atoms: _162  and  _163
REMARK   70  A    between atoms: _165  and  _167
REMARK   71  A    between atoms: _167  and  _168
REMARK   72  A    between atoms: _171  and  _173
REMARK   73  A    between atoms: _173  and  _174
REMARK   74  A    between atoms: _173  and  _176
REMARK   75  A    between atoms: _176  and  _177
REMARK   76  A    between atoms: _180  and  _182
REMARK   77  A    between atoms: _182  and  _183
REMARK   78  A    between atoms: _182  and  _185
REMARK   79  A    between atoms: _185  and  _186
REMARK   80  A    between atoms: _191  and  _192
REMARK   81  A    between atoms: _194  and  _196
REMARK   82  A    between atoms: _196  and  _197
REMARK   83  A    between atoms: _196  and  _199
REMARK   84  A    between atoms: _202  and  _204
REMARK   85  A    between atoms: _204  and  _205
REMARK   86  A    between atoms: _204  and  _207
REMARK   87  A    between atoms: _210  and  _212
REMARK   88  A    between atoms: _212  and  _213
REMARK   89  A    between atoms: _212  and  _215
REMARK   90  A    between atoms: _215  and  _216
REMARK   91  A    between atoms: _221  and  _223
REMARK   92  A    between atoms: _223  and  _224
REMARK   93  A    between atoms: _223  and  _226
REMARK   94  A    between atoms: _226  and  _227
REMARK   95  A    between atoms: _232  and  _234
REMARK   96  A    between atoms: _234  and  _235
REMARK   97  A    between atoms: _234  and  _237
REMARK   98  A    between atoms: _237  and  _238
REMARK   99  A    between atoms: _243  and  _245
REMARK  100  A    between atoms: _245  and  _246
REMARK  101  A    between atoms: _248  and  _250
REMARK  102  A    between atoms: _250  and  _251
REMARK  103  A    between atoms: _250  and  _253
REMARK  104  A    between atoms: _253  and  _254
REMARK  105  A    between atoms: _260  and  _262
REMARK  106  A    between atoms: _262  and  _263
REMARK  107  A    between atoms: _262  and  _265
REMARK  108  A    between atoms: _268  and  _270
REMARK  109  A    between atoms: _270  and  _271
REMARK  110  A    between atoms: _270  and  _273
REMARK  111  A    between atoms: _273  and  _274
REMARK  112  A    between atoms: _279  and  _281
REMARK  113  A    between atoms: _281  and  _282
REMARK  114  A    between atoms: _281  and  _284
REMARK  115  A    between atoms: _284  and  _285
REMARK  116  A    between atoms: _288  and  _290
REMARK  117  A    between atoms: _290  and  _291
REMARK                            x       y       z     vdW  Elec       q    Type
REMARK                         _______ _______ _______ _____ _____    ______ ____
ROOT
ATOM      1  CB  PHE A   1     -48.842  10.483   2.338  0.00  0.00    +0.051 C 
ENDROOT
BRANCH   1   2
ATOM      2  CG  PHE A   1     -47.679   9.983   3.137  0.00  0.00    -0.020 A 
ATOM      3  CD2 PHE A   1     -47.694  10.020   4.541  0.00  0.00    -0.004 A 
ATOM      4  CE2 PHE A   1     -46.590   9.560   5.286  0.00  0.00    -0.000 A 
ATOM      5  CZ  PHE A   1     -45.464   9.087   4.601  0.00  0.00    -0.000 A 
ATOM      6  CE1 PHE A   1     -45.427   9.118   3.205  0.00  0.00    -0.000 A 
ATOM      7  CD1 PHE A   1     -46.519   9.556   2.486  0.00  0.00    -0.004 A 
ENDBRANCH   1   2
BRANCH   1   8
ATOM      8  CA  PHE A   1     -48.724  11.960   1.993  0.00  0.00    +0.137 C 
BRANCH   8   9
ATOM      9  N   PHE A   1     -48.793  12.728   3.237  0.00  0.00    -0.239 NA
ATOM     10  H   PHE A   1     -49.657  12.649   3.810  0.00  0.00    +0.142 HD
ENDBRANCH   8   9
BRANCH   8  11
ATOM     11  C   PHE A   1     -49.761  12.369   0.911  0.00  0.00    +0.224 C 
ATOM     12  O   PHE A   1     -49.876  11.746  -0.169  0.00  0.00    -0.287 OA
ENDBRANCH   8  11
ENDBRANCH   1   8
TORSDOF 4
REMARK  Name = ../refined-set-2016/3hww/3hww_pocket.pdb
REMARK  117 active torsions:
REMARK  status: ('A' for Active; 'I' for Inactive)
REMARK    1  A    between atoms: _1  and  _3
REMARK    2  A    between atoms: _3  and  _4
REMARK    3  A    between atoms: _3  and  _6
REMARK    4  A    between atoms: _6  and  _7
REMARK    5  A    between atoms: _7  and  _8
REMARK    6  A    between atoms: _11  and  _13
REMARK    7  A    between atoms: _13  and  _14
REMARK    8  A    between atoms: _16  and  _18
REMARK    9  A    between atoms: _18  and  _19
REMARK   10  A    between atoms: _18  and  _21
REMARK   11  A    between atoms: _21  and  _22
REMARK   12  A    between atoms: _27  and  _29
REMARK   13  A    between atoms: _29  and  _30
REMARK   14  A    between atoms: _29  and  _32
REMARK   15  A    between atoms: _32  and  _33
REMARK   16  A    between atoms: _35  and  _37
REMARK   17  A    between atoms: _37  and  _38
REMARK   18  A    between atoms: _37  and  _40
REMARK   19  A    between atoms: _40  and  _41
REMARK   20  A    between atoms: _44  and  _46
REMARK   21  A    between atoms: _46  and  _47
REMARK   22  A    between atoms: _46  and  _49
REMARK   23  A    between atoms: _54  and  _55
REMARK   24  A    between atoms: _54  and  _57
REMARK   25  A    between atoms: _60  and  _62
REMARK   26  A    between atoms: _62  and  _63
REMARK   27  A    between atoms: _62  and  _65
REMARK   28  A    between atoms: _65  and  _66
REMARK   29  A    between atoms: _66  and  _67
REMARK   30  A    between atoms: _67  and  _68
REMARK   31  A    between atoms: _77  and  _79
REMARK   32  A    between atoms: _79  and  _80
REMARK   33  A    between atoms: _79  and  _82
REMARK   34  A    between atoms: _82  and  _83
REMARK   35  A    between atoms: _86  and  _88
REMARK   36  A    between atoms: _88  and  _89
REMARK   37  A    between atoms: _88  and  _91
REMARK   38  A    between atoms: _91  and  _92
REMARK   39  A    between atoms: _92  and  _93
REMARK   40  A    between atoms: _93  and  _94
REMARK   41  A    between atoms: _103  and  _105
REMARK   42  A    between atoms: _105  and  _106
REMARK   43  A    between atoms: _108  and  _110
REMARK   44  A    between atoms: _110  and  _111
REMARK   45  A    between atoms: _110  and  _113
REMARK   46  A    between atoms: _113  and  _114
REMARK   47  A    between atoms: _117  and  _119
REMARK   48  A    between atoms: _119  and  _120
REMARK   49  A    between atoms: _119  and  _122
REMARK   50  A    between atoms: _122  and  _123
REMARK   51  A    between atoms: _126  and  _128
REMARK   52  A    between atoms: _128  and  _129
REMARK   53  A    between atoms: _128  and  _131
REMARK   54  A    between atoms: _134  and  _136
REMARK   55  A    between atoms: _136  and  _137
REMARK   56  A    between atoms: _139  and  _141
REMARK   57  A    between atoms: _141  and  _142
REMARK   58  A    between atoms: _141  and  _144
REMARK   59  A    between atoms: _144  and  _145
REMARK   60  A    between atoms: _145  and  _146
REMARK   61  A    between atoms: _146  and  MG_294
REMARK   62  A    between atoms: _148  and  _150
REMARK   63  A    between atoms: _150  and  _151
REMARK   64  A    between atoms: _150  and  _153
REMARK   65  A    between atoms: _153  and  _154
REMARK   66  A    between atoms: _157  and  _159
REMARK   67  A    between atoms: _159  and  _160
REMARK   68  A    between atoms: _159  and  _162
REMARK   69  A    between atoms: _162  and  _163
REMARK   70  A    between atoms: _165  and  _167
REMARK   71  A    between atoms: _167  and  _168
REMARK   72  A    between atoms: _171  and  _173
REMARK   73  A    between atoms: _173  and  _174
REMARK   74  A    between atoms: _173  and  _176
REMARK   75  A    between atoms: _176  and  _177
REMARK   76  A    between atoms: _180  and  _182
REMARK   77  A    between atoms: _182  and  _183
REMARK   78  A    between atoms: _182  and  _185
REMARK   79  A    between atoms: _185  and  _186
REMARK   80  A    between atoms: _191  and  _192
REMARK   81  A    between atoms: _194  and  _196
REMARK   82  A    between atoms: _196  and  _197
REMARK   83  A    between atoms: _196  and  _199
REMARK   84  A    between atoms: _202  and  _204
REMARK   85  A    between atoms: _204  and  _205
REMARK   86  A    between atoms: _204  and  _207
REMARK   87  A    between atoms: _210  and  _212
REMARK   88  A    between atoms: _212  and  _213
REMARK   89  A    between atoms: _212  and  _215
REMARK   90  A    between atoms: _215  and  _216
REMARK   91  A    between atoms: _221  and  _223
REMARK   92  A    between atoms: _223  and  _224
REMARK   93  A    between atoms: _223  and  _226
REMARK   94  A    between atoms: _226  and  _227
REMARK   95  A    between atoms: _232  and  _234
REMARK   96  A    between atoms: _234  and  _235
REMARK   97  A    between atoms: _234  and  _237
REMARK   98  A    between atoms: _237  and  _238
REMARK   99  A    between atoms: _243  and  _245
REMARK  100  A    between atoms: _245  and  _246
REMARK  101  A    between atoms: _248  and  _250
REMARK  102  A    between atoms: _250  and  _251
REMARK  103  A    between atoms: _250  and  _253
REMARK  104  A    between atoms: _253  and  _254
REMARK  105  A    between atoms: _260  and  _262
REMARK  106  A    between atoms: _262  and  _263
REMARK  107  A    between atoms: _262  and  _265
REMARK  108  A    between atoms: _268  and  _270
REMARK  109  A    between atoms: _270  and  _271
REMARK  110  A    between atoms: _270  and  _273
REMARK  111  A    between atoms: _273  and  _274
REMARK  112  A    between atoms: _279  and  _281
REMARK  113  A    between atoms: _281  and  _282
REMARK  114  A    between atoms: _281  and  _284
REMARK  115  A    between atoms: _284  and  _285
REMARK  116  A    between atoms: _288  and  _290
REMARK  117  A    between atoms: _290  and  _291
REMARK                            x       y       z     vdW  Elec       q    Type
REMARK                         _______ _______ _______ _____ _____    ______ ____
ROOT
ATOM      1  CA  ASN A   2     -49.720   9.481  18.370  0.00  0.00    +0.158 C 
ENDROOT
BRANCH   1   3
ATOM      2  C   VAL A   1     -50.597   9.517  16.032  0.00  0.00    +0.238 C 
ATOM      3  N   ASN A   2     -50.673   9.171  17.308  0.00  0.00    -0.297 N 
ATOM      4  H   ASN A   2     -51.507   8.615  17.585  0.00  0.00    +0.150 HD
ATOM      5  O   VAL A   1     -49.664  10.187  15.538  0.00  0.00    -0.274 OA
BRANCH   2   6
ATOM      6  CA  VAL A   1     -51.776   8.996  15.194  0.00  0.00    +0.145 C 
BRANCH   6   7
ATOM      7  CB  VAL A   1     -51.924   7.452  15.317  0.00  0.00    +0.025 C 
ATOM      8  CG2 VAL A   1     -50.735   6.726  14.699  0.00  0.00    +0.002 C 
ATOM      9  CG1 VAL A   1     -53.211   6.997  14.652  0.00  0.00    +0.002 C 
ENDBRANCH   6   7
BRANCH   6  10
ATOM     10  N   VAL A   1     -51.666   9.402  13.821  0.00  0.00    -0.238 NA
ATOM     11  H   VAL A   1     -50.744   9.334  13.344  0.00  0.00    +0.142 HD
ENDBRANCH   6  10
ENDBRANCH   2   6
ENDBRANCH   1   3
BRANCH   1  12
ATOM     12  C   ASN A   2     -48.571   8.529  18.351  0.00  0.00    +0.241 C 
ATOM     13  N   ASP A   3     -47.450   8.908  18.969  0.00  0.00    -0.298 N 
ATOM     14  H   ASP A   3     -47.333   9.886  19.303  0.00  0.00    +0.150 HD
ATOM     15  O   ASN A   2     -48.730   7.406  17.856  0.00  0.00    -0.273 OA
BRANCH  13  16
ATOM     16  CA  ASP A   3     -46.383   7.915  19.169  0.00  0.00    +0.148 C 
BRANCH  16  17
ATOM     17  C   ASP A   3     -46.496   7.181  20.493  0.00  0.00    +0.227 C 
ATOM     18  O   ASP A   3     -45.529   6.548  20.934  0.00  0.00    -0.286 OA
ENDBRANCH  16  17
BRANCH  16  19
ATOM     19  CB  ASP A   3     -44.970   8.495  18.987  0.00  0.00    +0.142 C 
BRANCH  19  20
ATOM     20  CG  ASP A   3     -44.639   9.564  20.006  0.00  0.00    +0.367 C 
ATOM     21  OD2 ASP A   3     -43.666   9.365  20.789  0.00  0.00    -0.246 OA
ATOM     22  OD1 ASP A   3     -45.343  10.619  20.013  0.00  0.00    -0.246 OA
ENDBRANCH  19  20
ENDBRANCH  16  19
ENDBRANCH  13  16
ENDBRANCH   1  12
BRANCH   1  23
ATOM     23  CB  ASN A   2     -50.423   9.140  19.687  0.00  0.00    +0.114 C 
BRANCH  23  24
ATOM     24  CG  ASN A   2     -50.289  10.199  20.688  0.00  0.00    +0.222 C 
ATOM     25  OD1 ASN A   2     -49.668   9.997  21.732  0.00  0.00    -0.275 OA
ATOM     26  ND2 ASN A   2     -50.852  11.369  20.390  0.00  0.00    -0.329 N 
ATOM     27 HD21 ASN A   2     -50.778  12.166  21.054  0.00  0.00    +0.145 HD
ATOM     28 HD22 ASN A   2     -51.366  11.486  19.493  0.00  0.00    +0.145 HD
ENDBRANCH  23  24
ENDBRANCH   1  23
TORSDOF 11
REMARK  Name = ../refined-set-2016/3hww/3hww_pocket.pdb
REMARK  117 active torsions:
REMARK  status: ('A' for Active; 'I' for Inactive)
REMARK    1  A    between atoms: _1  and  _3
REMARK    2  A    between atoms: _3  and  _4
REMARK    3  A    between atoms: _3  and  _6
REMARK    4  A    between atoms: _6  and  _7
REMARK    5  A    between atoms: _7  and  _8
REMARK    6  A    between atoms: _11  and  _13
REMARK    7  A    between atoms: _13  and  _14
REMARK    8  A    between atoms: _16  and  _18
REMARK    9  A    between atoms: _18  and  _19
REMARK   10  A    between atoms: _18  and  _21
REMARK   11  A    between atoms: _21  and  _22
REMARK   12  A    between atoms: _27  and  _29
REMARK   13  A    between atoms: _29  and  _30
REMARK   14  A    between atoms: _29  and  _32
REMARK   15  A    between atoms: _32  and  _33
REMARK   16  A    between atoms: _35  and  _37
REMARK   17  A    between atoms: _37  and  _38
REMARK   18  A    between atoms: _37  and  _40
REMARK   19  A    between atoms: _40  and  _41
REMARK   20  A    between atoms: _44  and  _46
REMARK   21  A    between atoms: _46  and  _47
REMARK   22  A    between atoms: _46  and  _49
REMARK   23  A    between atoms: _54  and  _55
REMARK   24  A    between atoms: _54  and  _57
REMARK   25  A    between atoms: _60  and  _62
REMARK   26  A    between atoms: _62  and  _63
REMARK   27  A    between atoms: _62  and  _65
REMARK   28  A    between atoms: _65  and  _66
REMARK   29  A    between atoms: _66  and  _67
REMARK   30  A    between atoms: _67  and  _68
REMARK   31  A    between atoms: _77  and  _79
REMARK   32  A    between atoms: _79  and  _80
REMARK   33  A    between atoms: _79  and  _82
REMARK   34  A    between atoms: _82  and  _83
REMARK   35  A    between atoms: _86  and  _88
REMARK   36  A    between atoms: _88  and  _89
REMARK   37  A    between atoms: _88  and  _91
REMARK   38  A    between atoms: _91  and  _92
REMARK   39  A    between atoms: _92  and  _93
REMARK   40  A    between atoms: _93  and  _94
REMARK   41  A    between atoms: _103  and  _105
REMARK   42  A    between atoms: _105  and  _106
REMARK   43  A    between atoms: _108  and  _110
REMARK   44  A    between atoms: _110  and  _111
REMARK   45  A    between atoms: _110  and  _113
REMARK   46  A    between atoms: _113  and  _114
REMARK   47  A    between atoms: _117  and  _119
REMARK   48  A    between atoms: _119  and  _120
REMARK   49  A    between atoms: _119  and  _122
REMARK   50  A    between atoms: _122  and  _123
REMARK   51  A    between atoms: _126  and  _128
REMARK   52  A    between atoms: _128  and  _129
REMARK   53  A    between atoms: _128  and  _131
REMARK   54  A    between atoms: _134  and  _136
REMARK   55  A    between atoms: _136  and  _137
REMARK   56  A    between atoms: _139  and  _141
REMARK   57  A    between atoms: _141  and  _142
REMARK   58  A    between atoms: _141  and  _144
REMARK   59  A    between atoms: _144  and  _145
REMARK   60  A    between atoms: _145  and  _146
REMARK   61  A    between atoms: _146  and  MG_294
REMARK   62  A    between atoms: _148  and  _150
REMARK   63  A    between atoms: _150  and  _151
REMARK   64  A    between atoms: _150  and  _153
REMARK   65  A    between atoms: _153  and  _154
REMARK   66  A    between atoms: _157  and  _159
REMARK   67  A    between atoms: _159  and  _160
REMARK   68  A    between atoms: _159  and  _162
REMARK   69  A    between atoms: _162  and  _163
REMARK   70  A    between atoms: _165  and  _167
REMARK   71  A    between atoms: _167  and  _168
REMARK   72  A    between atoms: _171  and  _173
REMARK   73  A    between atoms: _173  and  _174
REMARK   74  A    between atoms: _173  and  _176
REMARK   75  A    between atoms: _176  and  _177
REMARK   76  A    between atoms: _180  and  _182
REMARK   77  A    between atoms: _182  and  _183
REMARK   78  A    between atoms: _182  and  _185
REMARK   79  A    between atoms: _185  and  _186
REMARK   80  A    between atoms: _191  and  _192
REMARK   81  A    between atoms: _194  and  _196
REMARK   82  A    between atoms: _196  and  _197
REMARK   83  A    between atoms: _196  and  _199
REMARK   84  A    between atoms: _202  and  _204
REMARK   85  A    between atoms: _204  and  _205
REMARK   86  A    between atoms: _204  and  _207
REMARK   87  A    between atoms: _210  and  _212
REMARK   88  A    between atoms: _212  and  _213
REMARK   89  A    between atoms: _212  and  _215
REMARK   90  A    between atoms: _215  and  _216
REMARK   91  A    between atoms: _221  and  _223
REMARK   92  A    between atoms: _223  and  _224
REMARK   93  A    between atoms: _223  and  _226
REMARK   94  A    between atoms: _226  and  _227
REMARK   95  A    between atoms: _232  and  _234
REMARK   96  A    between atoms: _234  and  _235
REMARK   97  A    between atoms: _234  and  _237
REMARK   98  A    between atoms: _237  and  _238
REMARK   99  A    between atoms: _243  and  _245
REMARK  100  A    between atoms: _245  and  _246
REMARK  101  A    between atoms: _248  and  _250
REMARK  102  A    between atoms: _250  and  _251
REMARK  103  A    between atoms: _250  and  _253
REMARK  104  A    between atoms: _253  and  _254
REMARK  105  A    between atoms: _260  and  _262
REMARK  106  A    between atoms: _262  and  _263
REMARK  107  A    between atoms: _262  and  _265
REMARK  108  A    between atoms: _268  and  _270
REMARK  109  A    between atoms: _270  and  _271
REMARK  110  A    between atoms: _270  and  _273
REMARK  111  A    between atoms: _273  and  _274
REMARK  112  A    between atoms: _279  and  _281
REMARK  113  A    between atoms: _281  and  _282
REMARK  114  A    between atoms: _281  and  _284
REMARK  115  A    between atoms: _284  and  _285
REMARK  116  A    between atoms: _288  and  _290
REMARK  117  A    between atoms: _290  and  _291
REMARK                            x       y       z     vdW  Elec       q    Type
REMARK                         _______ _______ _______ _____ _____    ______ ____
ROOT
ATOM      1  CA  ALA A   1     -48.231   0.924  22.636  0.00  0.00    +0.133 C 
ATOM      2  CB  ALA A   1     -46.874   1.615  22.761  0.00  0.00    +0.027 C 
ENDROOT
BRANCH   1   3
ATOM      3  N   ALA A   1     -49.094   1.649  21.691  0.00  0.00    -0.239 NA
ATOM      4  H   ALA A   1     -48.685   2.400  21.100  0.00  0.00    +0.142 HD
ENDBRANCH   1   3
BRANCH   1   5
ATOM      5  C   ALA A   1     -48.939   0.889  23.991  0.00  0.00    +0.224 C 
ATOM      6  O   ALA A   1     -49.200  -0.187  24.589  0.00  0.00    -0.287 OA
ENDBRANCH   1   5
TORSDOF 2
REMARK  Name = ../refined-set-2016/3hww/3hww_pocket.pdb
REMARK  117 active torsions:
REMARK  status: ('A' for Active; 'I' for Inactive)
REMARK    1  A    between atoms: _1  and  _3
REMARK    2  A    between atoms: _3  and  _4
REMARK    3  A    between atoms: _3  and  _6
REMARK    4  A    between atoms: _6  and  _7
REMARK    5  A    between atoms: _7  and  _8
REMARK    6  A    between atoms: _11  and  _13
REMARK    7  A    between atoms: _13  and  _14
REMARK    8  A    between atoms: _16  and  _18
REMARK    9  A    between atoms: _18  and  _19
REMARK   10  A    between atoms: _18  and  _21
REMARK   11  A    between atoms: _21  and  _22
REMARK   12  A    between atoms: _27  and  _29
REMARK   13  A    between atoms: _29  and  _30
REMARK   14  A    between atoms: _29  and  _32
REMARK   15  A    between atoms: _32  and  _33
REMARK   16  A    between atoms: _35  and  _37
REMARK   17  A    between atoms: _37  and  _38
REMARK   18  A    between atoms: _37  and  _40
REMARK   19  A    between atoms: _40  and  _41
REMARK   20  A    between atoms: _44  and  _46
REMARK   21  A    between atoms: _46  and  _47
REMARK   22  A    between atoms: _46  and  _49
REMARK   23  A    between atoms: _54  and  _55
REMARK   24  A    between atoms: _54  and  _57
REMARK   25  A    between atoms: _60  and  _62
REMARK   26  A    between atoms: _62  and  _63
REMARK   27  A    between atoms: _62  and  _65
REMARK   28  A    between atoms: _65  and  _66
REMARK   29  A    between atoms: _66  and  _67
REMARK   30  A    between atoms: _67  and  _68
REMARK   31  A    between atoms: _77  and  _79
REMARK   32  A    between atoms: _79  and  _80
REMARK   33  A    between atoms: _79  and  _82
REMARK   34  A    between atoms: _82  and  _83
REMARK   35  A    between atoms: _86  and  _88
REMARK   36  A    between atoms: _88  and  _89
REMARK   37  A    between atoms: _88  and  _91
REMARK   38  A    between atoms: _91  and  _92
REMARK   39  A    between atoms: _92  and  _93
REMARK   40  A    between atoms: _93  and  _94
REMARK   41  A    between atoms: _103  and  _105
REMARK   42  A    between atoms: _105  and  _106
REMARK   43  A    between atoms: _108  and  _110
REMARK   44  A    between atoms: _110  and  _111
REMARK   45  A    between atoms: _110  and  _113
REMARK   46  A    between atoms: _113  and  _114
REMARK   47  A    between atoms: _117  and  _119
REMARK   48  A    between atoms: _119  and  _120
REMARK   49  A    between atoms: _119  and  _122
REMARK   50  A    between atoms: _122  and  _123
REMARK   51  A    between atoms: _126  and  _128
REMARK   52  A    between atoms: _128  and  _129
REMARK   53  A    between atoms: _128  and  _131
REMARK   54  A    between atoms: _134  and  _136
REMARK   55  A    between atoms: _136  and  _137
REMARK   56  A    between atoms: _139  and  _141
REMARK   57  A    between atoms: _141  and  _142
REMARK   58  A    between atoms: _141  and  _144
REMARK   59  A    between atoms: _144  and  _145
REMARK   60  A    between atoms: _145  and  _146
REMARK   61  A    between atoms: _146  and  MG_294
REMARK   62  A    between atoms: _148  and  _150
REMARK   63  A    between atoms: _150  and  _151
REMARK   64  A    between atoms: _150  and  _153
REMARK   65  A    between atoms: _153  and  _154
REMARK   66  A    between atoms: _157  and  _159
REMARK   67  A    between atoms: _159  and  _160
REMARK   68  A    between atoms: _159  and  _162
REMARK   69  A    between atoms: _162  and  _163
REMARK   70  A    between atoms: _165  and  _167
REMARK   71  A    between atoms: _167  and  _168
REMARK   72  A    between atoms: _171  and  _173
REMARK   73  A    between atoms: _173  and  _174
REMARK   74  A    between atoms: _173  and  _176
REMARK   75  A    between atoms: _176  and  _177
REMARK   76  A    between atoms: _180  and  _182
REMARK   77  A    between atoms: _182  and  _183
REMARK   78  A    between atoms: _182  and  _185
REMARK   79  A    between atoms: _185  and  _186
REMARK   80  A    between atoms: _191  and  _192
REMARK   81  A    between atoms: _194  and  _196
REMARK   82  A    between atoms: _196  and  _197
REMARK   83  A    between atoms: _196  and  _199
REMARK   84  A    between atoms: _202  and  _204
REMARK   85  A    between atoms: _204  and  _205
REMARK   86  A    between atoms: _204  and  _207
REMARK   87  A    between atoms: _210  and  _212
REMARK   88  A    between atoms: _212  and  _213
REMARK   89  A    between atoms: _212  and  _215
REMARK   90  A    between atoms: _215  and  _216
REMARK   91  A    between atoms: _221  and  _223
REMARK   92  A    between atoms: _223  and  _224
REMARK   93  A    between atoms: _223  and  _226
REMARK   94  A    between atoms: _226  and  _227
REMARK   95  A    between atoms: _232  and  _234
REMARK   96  A    between atoms: _234  and  _235
REMARK   97  A    between atoms: _234  and  _237
REMARK   98  A    between atoms: _237  and  _238
REMARK   99  A    between atoms: _243  and  _245
REMARK  100  A    between atoms: _245  and  _246
REMARK  101  A    between atoms: _248  and  _250
REMARK  102  A    between atoms: _250  and  _251
REMARK  103  A    between atoms: _250  and  _253
REMARK  104  A    between atoms: _253  and  _254
REMARK  105  A    between atoms: _260  and  _262
REMARK  106  A    between atoms: _262  and  _263
REMARK  107  A    between atoms: _262  and  _265
REMARK  108  A    between atoms: _268  and  _270
REMARK  109  A    between atoms: _270  and  _271
REMARK  110  A    between atoms: _270  and  _273
REMARK  111  A    between atoms: _273  and  _274
REMARK  112  A    between atoms: _279  and  _281
REMARK  113  A    between atoms: _281  and  _282
REMARK  114  A    between atoms: _281  and  _284
REMARK  115  A    between atoms: _284  and  _285
REMARK  116  A    between atoms: _288  and  _290
REMARK  117  A    between atoms: _290  and  _291
REMARK                            x       y       z     vdW  Elec       q    Type
REMARK                         _______ _______ _______ _____ _____    ______ ____
ROOT
ATOM      1  O   HOH     1     -40.999   0.402   2.607  0.00  0.00    +0.000 OA
ENDROOT
TORSDOF 0
REMARK  Name = ../refined-set-2016/3hww/3hww_pocket.pdb
REMARK  117 active torsions:
REMARK  status: ('A' for Active; 'I' for Inactive)
REMARK    1  A    between atoms: _1  and  _3
REMARK    2  A    between atoms: _3  and  _4
REMARK    3  A    between atoms: _3  and  _6
REMARK    4  A    between atoms: _6  and  _7
REMARK    5  A    between atoms: _7  and  _8
REMARK    6  A    between atoms: _11  and  _13
REMARK    7  A    between atoms: _13  and  _14
REMARK    8  A    between atoms: _16  and  _18
REMARK    9  A    between atoms: _18  and  _19
REMARK   10  A    between atoms: _18  and  _21
REMARK   11  A    between atoms: _21  and  _22
REMARK   12  A    between atoms: _27  and  _29
REMARK   13  A    between atoms: _29  and  _30
REMARK   14  A    between atoms: _29  and  _32
REMARK   15  A    between atoms: _32  and  _33
REMARK   16  A    between atoms: _35  and  _37
REMARK   17  A    between atoms: _37  and  _38
REMARK   18  A    between atoms: _37  and  _40
REMARK   19  A    between atoms: _40  and  _41
REMARK   20  A    between atoms: _44  and  _46
REMARK   21  A    between atoms: _46  and  _47
REMARK   22  A    between atoms: _46  and  _49
REMARK   23  A    between atoms: _54  and  _55
REMARK   24  A    between atoms: _54  and  _57
REMARK   25  A    between atoms: _60  and  _62
REMARK   26  A    between atoms: _62  and  _63
REMARK   27  A    between atoms: _62  and  _65
REMARK   28  A    between atoms: _65  and  _66
REMARK   29  A    between atoms: _66  and  _67
REMARK   30  A    between atoms: _67  and  _68
REMARK   31  A    between atoms: _77  and  _79
REMARK   32  A    between atoms: _79  and  _80
REMARK   33  A    between atoms: _79  and  _82
REMARK   34  A    between atoms: _82  and  _83
REMARK   35  A    between atoms: _86  and  _88
REMARK   36  A    between atoms: _88  and  _89
REMARK   37  A    between atoms: _88  and  _91
REMARK   38  A    between atoms: _91  and  _92
REMARK   39  A    between atoms: _92  and  _93
REMARK   40  A    between atoms: _93  and  _94
REMARK   41  A    between atoms: _103  and  _105
REMARK   42  A    between atoms: _105  and  _106
REMARK   43  A    between atoms: _108  and  _110
REMARK   44  A    between atoms: _110  and  _111
REMARK   45  A    between atoms: _110  and  _113
REMARK   46  A    between atoms: _113  and  _114
REMARK   47  A    between atoms: _117  and  _119
REMARK   48  A    between atoms: _119  and  _120
REMARK   49  A    between atoms: _119  and  _122
REMARK   50  A    between atoms: _122  and  _123
REMARK   51  A    between atoms: _126  and  _128
REMARK   52  A    between atoms: _128  and  _129
REMARK   53  A    between atoms: _128  and  _131
REMARK   54  A    between atoms: _134  and  _136
REMARK   55  A    between atoms: _136  and  _137
REMARK   56  A    between atoms: _139  and  _141
REMARK   57  A    between atoms: _141  and  _142
REMARK   58  A    between atoms: _141  and  _144
REMARK   59  A    between atoms: _144  and  _145
REMARK   60  A    between atoms: _145  and  _146
REMARK   61  A    between atoms: _146  and  MG_294
REMARK   62  A    between atoms: _148  and  _150
REMARK   63  A    between atoms: _150  and  _151
REMARK   64  A    between atoms: _150  and  _153
REMARK   65  A    between atoms: _153  and  _154
REMARK   66  A    between atoms: _157  and  _159
REMARK   67  A    between atoms: _159  and  _160
REMARK   68  A    between atoms: _159  and  _162
REMARK   69  A    between atoms: _162  and  _163
REMARK   70  A    between atoms: _165  and  _167
REMARK   71  A    between atoms: _167  and  _168
REMARK   72  A    between atoms: _171  and  _173
REMARK   73  A    between atoms: _173  and  _174
REMARK   74  A    between atoms: _173  and  _176
REMARK   75  A    between atoms: _176  and  _177
REMARK   76  A    between atoms: _180  and  _182
REMARK   77  A    between atoms: _182  and  _183
REMARK   78  A    between atoms: _182  and  _185
REMARK   79  A    between atoms: _185  and  _186
REMARK   80  A    between atoms: _191  and  _192
REMARK   81  A    between atoms: _194  and  _196
REMARK   82  A    between atoms: _196  and  _197
REMARK   83  A    between atoms: _196  and  _199
REMARK   84  A    between atoms: _202  and  _204
REMARK   85  A    between atoms: _204  and  _205
REMARK   86  A    between atoms: _204  and  _207
REMARK   87  A    between atoms: _210  and  _212
REMARK   88  A    between atoms: _212  and  _213
REMARK   89  A    between atoms: _212  and  _215
REMARK   90  A    between atoms: _215  and  _216
REMARK   91  A    between atoms: _221  and  _223
REMARK   92  A    between atoms: _223  and  _224
REMARK   93  A    between atoms: _223  and  _226
REMARK   94  A    between atoms: _226  and  _227
REMARK   95  A    between atoms: _232  and  _234
REMARK   96  A    between atoms: _234  and  _235
REMARK   97  A    between atoms: _234  and  _237
REMARK   98  A    between atoms: _237  and  _238
REMARK   99  A    between atoms: _243  and  _245
REMARK  100  A    between atoms: _245  and  _246
REMARK  101  A    between atoms: _248  and  _250
REMARK  102  A    between atoms: _250  and  _251
REMARK  103  A    between atoms: _250  and  _253
REMARK  104  A    between atoms: _253  and  _254
REMARK  105  A    between atoms: _260  and  _262
REMARK  106  A    between atoms: _262  and  _263
REMARK  107  A    between atoms: _262  and  _265
REMARK  108  A    between atoms: _268  and  _270
REMARK  109  A    between atoms: _270  and  _271
REMARK  110  A    between atoms: _270  and  _273
REMARK  111  A    between atoms: _273  and  _274
REMARK  112  A    between atoms: _279  and  _281
REMARK  113  A    between atoms: _281  and  _282
REMARK  114  A    between atoms: _281  and  _284
REMARK  115  A    between atoms: _284  and  _285
REMARK  116  A    between atoms: _288  and  _290
REMARK  117  A    between atoms: _290  and  _291
REMARK                            x       y       z     vdW  Elec       q    Type
REMARK                         _______ _______ _______ _____ _____    ______ ____
ROOT
ATOM      1  O   HOH     1     -40.236   2.024  11.551  0.00  0.00    +0.000 OA
ENDROOT
TORSDOF 0
REMARK  Name = ../refined-set-2016/3hww/3hww_pocket.pdb
REMARK  117 active torsions:
REMARK  status: ('A' for Active; 'I' for Inactive)
REMARK    1  A    between atoms: _1  and  _3
REMARK    2  A    between atoms: _3  and  _4
REMARK    3  A    between atoms: _3  and  _6
REMARK    4  A    between atoms: _6  and  _7
REMARK    5  A    between atoms: _7  and  _8
REMARK    6  A    between atoms: _11  and  _13
REMARK    7  A    between atoms: _13  and  _14
REMARK    8  A    between atoms: _16  and  _18
REMARK    9  A    between atoms: _18  and  _19
REMARK   10  A    between atoms: _18  and  _21
REMARK   11  A    between atoms: _21  and  _22
REMARK   12  A    between atoms: _27  and  _29
REMARK   13  A    between atoms: _29  and  _30
REMARK   14  A    between atoms: _29  and  _32
REMARK   15  A    between atoms: _32  and  _33
REMARK   16  A    between atoms: _35  and  _37
REMARK   17  A    between atoms: _37  and  _38
REMARK   18  A    between atoms: _37  and  _40
REMARK   19  A    between atoms: _40  and  _41
REMARK   20  A    between atoms: _44  and  _46
REMARK   21  A    between atoms: _46  and  _47
REMARK   22  A    between atoms: _46  and  _49
REMARK   23  A    between atoms: _54  and  _55
REMARK   24  A    between atoms: _54  and  _57
REMARK   25  A    between atoms: _60  and  _62
REMARK   26  A    between atoms: _62  and  _63
REMARK   27  A    between atoms: _62  and  _65
REMARK   28  A    between atoms: _65  and  _66
REMARK   29  A    between atoms: _66  and  _67
REMARK   30  A    between atoms: _67  and  _68
REMARK   31  A    between atoms: _77  and  _79
REMARK   32  A    between atoms: _79  and  _80
REMARK   33  A    between atoms: _79  and  _82
REMARK   34  A    between atoms: _82  and  _83
REMARK   35  A    between atoms: _86  and  _88
REMARK   36  A    between atoms: _88  and  _89
REMARK   37  A    between atoms: _88  and  _91
REMARK   38  A    between atoms: _91  and  _92
REMARK   39  A    between atoms: _92  and  _93
REMARK   40  A    between atoms: _93  and  _94
REMARK   41  A    between atoms: _103  and  _105
REMARK   42  A    between atoms: _105  and  _106
REMARK   43  A    between atoms: _108  and  _110
REMARK   44  A    between atoms: _110  and  _111
REMARK   45  A    between atoms: _110  and  _113
REMARK   46  A    between atoms: _113  and  _114
REMARK   47  A    between atoms: _117  and  _119
REMARK   48  A    between atoms: _119  and  _120
REMARK   49  A    between atoms: _119  and  _122
REMARK   50  A    between atoms: _122  and  _123
REMARK   51  A    between atoms: _126  and  _128
REMARK   52  A    between atoms: _128  and  _129
REMARK   53  A    between atoms: _128  and  _131
REMARK   54  A    between atoms: _134  and  _136
REMARK   55  A    between atoms: _136  and  _137
REMARK   56  A    between atoms: _139  and  _141
REMARK   57  A    between atoms: _141  and  _142
REMARK   58  A    between atoms: _141  and  _144
REMARK   59  A    between atoms: _144  and  _145
REMARK   60  A    between atoms: _145  and  _146
REMARK   61  A    between atoms: _146  and  MG_294
REMARK   62  A    between atoms: _148  and  _150
REMARK   63  A    between atoms: _150  and  _151
REMARK   64  A    between atoms: _150  and  _153
REMARK   65  A    between atoms: _153  and  _154
REMARK   66  A    between atoms: _157  and  _159
REMARK   67  A    between atoms: _159  and  _160
REMARK   68  A    between atoms: _159  and  _162
REMARK   69  A    between atoms: _162  and  _163
REMARK   70  A    between atoms: _165  and  _167
REMARK   71  A    between atoms: _167  and  _168
REMARK   72  A    between atoms: _171  and  _173
REMARK   73  A    between atoms: _173  and  _174
REMARK   74  A    between atoms: _173  and  _176
REMARK   75  A    between atoms: _176  and  _177
REMARK   76  A    between atoms: _180  and  _182
REMARK   77  A    between atoms: _182  and  _183
REMARK   78  A    between atoms: _182  and  _185
REMARK   79  A    between atoms: _185  and  _186
REMARK   80  A    between atoms: _191  and  _192
REMARK   81  A    between atoms: _194  and  _196
REMARK   82  A    between atoms: _196  and  _197
REMARK   83  A    between atoms: _196  and  _199
REMARK   84  A    between atoms: _202  and  _204
REMARK   85  A    between atoms: _204  and  _205
REMARK   86  A    between atoms: _204  and  _207
REMARK   87  A    between atoms: _210  and  _212
REMARK   88  A    between atoms: _212  and  _213
REMARK   89  A    between atoms: _212  and  _215
REMARK   90  A    between atoms: _215  and  _216
REMARK   91  A    between atoms: _221  and  _223
REMARK   92  A    between atoms: _223  and  _224
REMARK   93  A    between atoms: _223  and  _226
REMARK   94  A    between atoms: _226  and  _227
REMARK   95  A    between atoms: _232  and  _234
REMARK   96  A    between atoms: _234  and  _235
REMARK   97  A    between atoms: _234  and  _237
REMARK   98  A    between atoms: _237  and  _238
REMARK   99  A    between atoms: _243  and  _245
REMARK  100  A    between atoms: _245  and  _246
REMARK  101  A    between atoms: _248  and  _250
REMARK  102  A    between atoms: _250  and  _251
REMARK  103  A    between atoms: _250  and  _253
REMARK  104  A    between atoms: _253  and  _254
REMARK  105  A    between atoms: _260  and  _262
REMARK  106  A    between atoms: _262  and  _263
REMARK  107  A    between atoms: _262  and  _265
REMARK  108  A    between atoms: _268  and  _270
REMARK  109  A    between atoms: _270  and  _271
REMARK  110  A    between atoms: _270  and  _273
REMARK  111  A    between atoms: _273  and  _274
REMARK  112  A    between atoms: _279  and  _281
REMARK  113  A    between atoms: _281  and  _282
REMARK  114  A    between atoms: _281  and  _284
REMARK  115  A    between atoms: _284  and  _285
REMARK  116  A    between atoms: _288  and  _290
REMARK  117  A    between atoms: _290  and  _291
REMARK                            x       y       z     vdW  Elec       q    Type
REMARK                         _______ _______ _______ _____ _____    ______ ____
ROOT
ATOM      1  O   HOH     1     -47.575   4.761  17.679  0.00  0.00    +0.000 OA
ENDROOT
TORSDOF 0
REMARK  Name = ../refined-set-2016/3hww/3hww_pocket.pdb
REMARK  117 active torsions:
REMARK  status: ('A' for Active; 'I' for Inactive)
REMARK    1  A    between atoms: _1  and  _3
REMARK    2  A    between atoms: _3  and  _4
REMARK    3  A    between atoms: _3  and  _6
REMARK    4  A    between atoms: _6  and  _7
REMARK    5  A    between atoms: _7  and  _8
REMARK    6  A    between atoms: _11  and  _13
REMARK    7  A    between atoms: _13  and  _14
REMARK    8  A    between atoms: _16  and  _18
REMARK    9  A    between atoms: _18  and  _19
REMARK   10  A    between atoms: _18  and  _21
REMARK   11  A    between atoms: _21  and  _22
REMARK   12  A    between atoms: _27  and  _29
REMARK   13  A    between atoms: _29  and  _30
REMARK   14  A    between atoms: _29  and  _32
REMARK   15  A    between atoms: _32  and  _33
REMARK   16  A    between atoms: _35  and  _37
REMARK   17  A    between atoms: _37  and  _38
REMARK   18  A    between atoms: _37  and  _40
REMARK   19  A    between atoms: _40  and  _41
REMARK   20  A    between atoms: _44  and  _46
REMARK   21  A    between atoms: _46  and  _47
REMARK   22  A    between atoms: _46  and  _49
REMARK   23  A    between atoms: _54  and  _55
REMARK   24  A    between atoms: _54  and  _57
REMARK   25  A    between atoms: _60  and  _62
REMARK   26  A    between atoms: _62  and  _63
REMARK   27  A    between atoms: _62  and  _65
REMARK   28  A    between atoms: _65  and  _66
REMARK   29  A    between atoms: _66  and  _67
REMARK   30  A    between atoms: _67  and  _68
REMARK   31  A    between atoms: _77  and  _79
REMARK   32  A    between atoms: _79  and  _80
REMARK   33  A    between atoms: _79  and  _82
REMARK   34  A    between atoms: _82  and  _83
REMARK   35  A    between atoms: _86  and  _88
REMARK   36  A    between atoms: _88  and  _89
REMARK   37  A    between atoms: _88  and  _91
REMARK   38  A    between atoms: _91  and  _92
REMARK   39  A    between atoms: _92  and  _93
REMARK   40  A    between atoms: _93  and  _94
REMARK   41  A    between atoms: _103  and  _105
REMARK   42  A    between atoms: _105  and  _106
REMARK   43  A    between atoms: _108  and  _110
REMARK   44  A    between atoms: _110  and  _111
REMARK   45  A    between atoms: _110  and  _113
REMARK   46  A    between atoms: _113  and  _114
REMARK   47  A    between atoms: _117  and  _119
REMARK   48  A    between atoms: _119  and  _120
REMARK   49  A    between atoms: _119  and  _122
REMARK   50  A    between atoms: _122  and  _123
REMARK   51  A    between atoms: _126  and  _128
REMARK   52  A    between atoms: _128  and  _129
REMARK   53  A    between atoms: _128  and  _131
REMARK   54  A    between atoms: _134  and  _136
REMARK   55  A    between atoms: _136  and  _137
REMARK   56  A    between atoms: _139  and  _141
REMARK   57  A    between atoms: _141  and  _142
REMARK   58  A    between atoms: _141  and  _144
REMARK   59  A    between atoms: _144  and  _145
REMARK   60  A    between atoms: _145  and  _146
REMARK   61  A    between atoms: _146  and  MG_294
REMARK   62  A    between atoms: _148  and  _150
REMARK   63  A    between atoms: _150  and  _151
REMARK   64  A    between atoms: _150  and  _153
REMARK   65  A    between atoms: _153  and  _154
REMARK   66  A    between atoms: _157  and  _159
REMARK   67  A    between atoms: _159  and  _160
REMARK   68  A    between atoms: _159  and  _162
REMARK   69  A    between atoms: _162  and  _163
REMARK   70  A    between atoms: _165  and  _167
REMARK   71  A    between atoms: _167  and  _168
REMARK   72  A    between atoms: _171  and  _173
REMARK   73  A    between atoms: _173  and  _174
REMARK   74  A    between atoms: _173  and  _176
REMARK   75  A    between atoms: _176  and  _177
REMARK   76  A    between atoms: _180  and  _182
REMARK   77  A    between atoms: _182  and  _183
REMARK   78  A    between atoms: _182  and  _185
REMARK   79  A    between atoms: _185  and  _186
REMARK   80  A    between atoms: _191  and  _192
REMARK   81  A    between atoms: _194  and  _196
REMARK   82  A    between atoms: _196  and  _197
REMARK   83  A    between atoms: _196  and  _199
REMARK   84  A    between atoms: _202  and  _204
REMARK   85  A    between atoms: _204  and  _205
REMARK   86  A    between atoms: _204  and  _207
REMARK   87  A    between atoms: _210  and  _212
REMARK   88  A    between atoms: _212  and  _213
REMARK   89  A    between atoms: _212  and  _215
REMARK   90  A    between atoms: _215  and  _216
REMARK   91  A    between atoms: _221  and  _223
REMARK   92  A    between atoms: _223  and  _224
REMARK   93  A    between atoms: _223  and  _226
REMARK   94  A    between atoms: _226  and  _227
REMARK   95  A    between atoms: _232  and  _234
REMARK   96  A    between atoms: _234  and  _235
REMARK   97  A    between atoms: _234  and  _237
REMARK   98  A    between atoms: _237  and  _238
REMARK   99  A    between atoms: _243  and  _245
REMARK  100  A    between atoms: _245  and  _246
REMARK  101  A    between atoms: _248  and  _250
REMARK  102  A    between atoms: _250  and  _251
REMARK  103  A    between atoms: _250  and  _253
REMARK  104  A    between atoms: _253  and  _254
REMARK  105  A    between atoms: _260  and  _262
REMARK  106  A    between atoms: _262  and  _263
REMARK  107  A    between atoms: _262  and  _265
REMARK  108  A    between atoms: _268  and  _270
REMARK  109  A    between atoms: _270  and  _271
REMARK  110  A    between atoms: _270  and  _273
REMARK  111  A    between atoms: _273  and  _274
REMARK  112  A    between atoms: _279  and  _281
REMARK  113  A    between atoms: _281  and  _282
REMARK  114  A    between atoms: _281  and  _284
REMARK  115  A    between atoms: _284  and  _285
REMARK  116  A    between atoms: _288  and  _290
REMARK  117  A    between atoms: _290  and  _291
REMARK                            x       y       z     vdW  Elec       q    Type
REMARK                         _______ _______ _______ _____ _____    ______ ____
ROOT
ATOM      1  O   HOH     1     -47.551   2.098  13.759  0.00  0.00    +0.000 OA
ENDROOT
TORSDOF 0
REMARK  Name = ../refined-set-2016/3hww/3hww_pocket.pdb
REMARK  117 active torsions:
REMARK  status: ('A' for Active; 'I' for Inactive)
REMARK    1  A    between atoms: _1  and  _3
REMARK    2  A    between atoms: _3  and  _4
REMARK    3  A    between atoms: _3  and  _6
REMARK    4  A    between atoms: _6  and  _7
REMARK    5  A    between atoms: _7  and  _8
REMARK    6  A    between atoms: _11  and  _13
REMARK    7  A    between atoms: _13  and  _14
REMARK    8  A    between atoms: _16  and  _18
REMARK    9  A    between atoms: _18  and  _19
REMARK   10  A    between atoms: _18  and  _21
REMARK   11  A    between atoms: _21  and  _22
REMARK   12  A    between atoms: _27  and  _29
REMARK   13  A    between atoms: _29  and  _30
REMARK   14  A    between atoms: _29  and  _32
REMARK   15  A    between atoms: _32  and  _33
REMARK   16  A    between atoms: _35  and  _37
REMARK   17  A    between atoms: _37  and  _38
REMARK   18  A    between atoms: _37  and  _40
REMARK   19  A    between atoms: _40  and  _41
REMARK   20  A    between atoms: _44  and  _46
REMARK   21  A    between atoms: _46  and  _47
REMARK   22  A    between atoms: _46  and  _49
REMARK   23  A    between atoms: _54  and  _55
REMARK   24  A    between atoms: _54  and  _57
REMARK   25  A    between atoms: _60  and  _62
REMARK   26  A    between atoms: _62  and  _63
REMARK   27  A    between atoms: _62  and  _65
REMARK   28  A    between atoms: _65  and  _66
REMARK   29  A    between atoms: _66  and  _67
REMARK   30  A    between atoms: _67  and  _68
REMARK   31  A    between atoms: _77  and  _79
REMARK   32  A    between atoms: _79  and  _80
REMARK   33  A    between atoms: _79  and  _82
REMARK   34  A    between atoms: _82  and  _83
REMARK   35  A    between atoms: _86  and  _88
REMARK   36  A    between atoms: _88  and  _89
REMARK   37  A    between atoms: _88  and  _91
REMARK   38  A    between atoms: _91  and  _92
REMARK   39  A    between atoms: _92  and  _93
REMARK   40  A    between atoms: _93  and  _94
REMARK   41  A    between atoms: _103  and  _105
REMARK   42  A    between atoms: _105  and  _106
REMARK   43  A    between atoms: _108  and  _110
REMARK   44  A    between atoms: _110  and  _111
REMARK   45  A    between atoms: _110  and  _113
REMARK   46  A    between atoms: _113  and  _114
REMARK   47  A    between atoms: _117  and  _119
REMARK   48  A    between atoms: _119  and  _120
REMARK   49  A    between atoms: _119  and  _122
REMARK   50  A    between atoms: _122  and  _123
REMARK   51  A    between atoms: _126  and  _128
REMARK   52  A    between atoms: _128  and  _129
REMARK   53  A    between atoms: _128  and  _131
REMARK   54  A    between atoms: _134  and  _136
REMARK   55  A    between atoms: _136  and  _137
REMARK   56  A    between atoms: _139  and  _141
REMARK   57  A    between atoms: _141  and  _142
REMARK   58  A    between atoms: _141  and  _144
REMARK   59  A    between atoms: _144  and  _145
REMARK   60  A    between atoms: _145  and  _146
REMARK   61  A    between atoms: _146  and  MG_294
REMARK   62  A    between atoms: _148  and  _150
REMARK   63  A    between atoms: _150  and  _151
REMARK   64  A    between atoms: _150  and  _153
REMARK   65  A    between atoms: _153  and  _154
REMARK   66  A    between atoms: _157  and  _159
REMARK   67  A    between atoms: _159  and  _160
REMARK   68  A    between atoms: _159  and  _162
REMARK   69  A    between atoms: _162  and  _163
REMARK   70  A    between atoms: _165  and  _167
REMARK   71  A    between atoms: _167  and  _168
REMARK   72  A    between atoms: _171  and  _173
REMARK   73  A    between atoms: _173  and  _174
REMARK   74  A    between atoms: _173  and  _176
REMARK   75  A    between atoms: _176  and  _177
REMARK   76  A    between atoms: _180  and  _182
REMARK   77  A    between atoms: _182  and  _183
REMARK   78  A    between atoms: _182  and  _185
REMARK   79  A    between atoms: _185  and  _186
REMARK   80  A    between atoms: _191  and  _192
REMARK   81  A    between atoms: _194  and  _196
REMARK   82  A    between atoms: _196  and  _197
REMARK   83  A    between atoms: _196  and  _199
REMARK   84  A    between atoms: _202  and  _204
REMARK   85  A    between atoms: _204  and  _205
REMARK   86  A    between atoms: _204  and  _207
REMARK   87  A    between atoms: _210  and  _212
REMARK   88  A    between atoms: _212  and  _213
REMARK   89  A    between atoms: _212  and  _215
REMARK   90  A    between atoms: _215  and  _216
REMARK   91  A    between atoms: _221  and  _223
REMARK   92  A    between atoms: _223  and  _224
REMARK   93  A    between atoms: _223  and  _226
REMARK   94  A    between atoms: _226  and  _227
REMARK   95  A    between atoms: _232  and  _234
REMARK   96  A    between atoms: _234  and  _235
REMARK   97  A    between atoms: _234  and  _237
REMARK   98  A    between atoms: _237  and  _238
REMARK   99  A    between atoms: _243  and  _245
REMARK  100  A    between atoms: _245  and  _246
REMARK  101  A    between atoms: _248  and  _250
REMARK  102  A    between atoms: _250  and  _251
REMARK  103  A    between atoms: _250  and  _253
REMARK  104  A    between atoms: _253  and  _254
REMARK  105  A    between atoms: _260  and  _262
REMARK  106  A    between atoms: _262  and  _263
REMARK  107  A    between atoms: _262  and  _265
REMARK  108  A    between atoms: _268  and  _270
REMARK  109  A    between atoms: _270  and  _271
REMARK  110  A    between atoms: _270  and  _273
REMARK  111  A    between atoms: _273  and  _274
REMARK  112  A    between atoms: _279  and  _281
REMARK  113  A    between atoms: _281  and  _282
REMARK  114  A    between atoms: _281  and  _284
REMARK  115  A    between atoms: _284  and  _285
REMARK  116  A    between atoms: _288  and  _290
REMARK  117  A    between atoms: _290  and  _291
REMARK                            x       y       z     vdW  Elec       q    Type
REMARK                         _______ _______ _______ _____ _____    ______ ____
ROOT
ATOM      1  O   HOH     1     -47.942   3.935  20.429  0.00  0.00    +0.000 OA
ENDROOT
TORSDOF 0
REMARK  Name = ../refined-set-2016/3hww/3hww_pocket.pdb
REMARK  117 active torsions:
REMARK  status: ('A' for Active; 'I' for Inactive)
REMARK    1  A    between atoms: _1  and  _3
REMARK    2  A    between atoms: _3  and  _4
REMARK    3  A    between atoms: _3  and  _6
REMARK    4  A    between atoms: _6  and  _7
REMARK    5  A    between atoms: _7  and  _8
REMARK    6  A    between atoms: _11  and  _13
REMARK    7  A    between atoms: _13  and  _14
REMARK    8  A    between atoms: _16  and  _18
REMARK    9  A    between atoms: _18  and  _19
REMARK   10  A    between atoms: _18  and  _21
REMARK   11  A    between atoms: _21  and  _22
REMARK   12  A    between atoms: _27  and  _29
REMARK   13  A    between atoms: _29  and  _30
REMARK   14  A    between atoms: _29  and  _32
REMARK   15  A    between atoms: _32  and  _33
REMARK   16  A    between atoms: _35  and  _37
REMARK   17  A    between atoms: _37  and  _38
REMARK   18  A    between atoms: _37  and  _40
REMARK   19  A    between atoms: _40  and  _41
REMARK   20  A    between atoms: _44  and  _46
REMARK   21  A    between atoms: _46  and  _47
REMARK   22  A    between atoms: _46  and  _49
REMARK   23  A    between atoms: _54  and  _55
REMARK   24  A    between atoms: _54  and  _57
REMARK   25  A    between atoms: _60  and  _62
REMARK   26  A    between atoms: _62  and  _63
REMARK   27  A    between atoms: _62  and  _65
REMARK   28  A    between atoms: _65  and  _66
REMARK   29  A    between atoms: _66  and  _67
REMARK   30  A    between atoms: _67  and  _68
REMARK   31  A    between atoms: _77  and  _79
REMARK   32  A    between atoms: _79  and  _80
REMARK   33  A    between atoms: _79  and  _82
REMARK   34  A    between atoms: _82  and  _83
REMARK   35  A    between atoms: _86  and  _88
REMARK   36  A    between atoms: _88  and  _89
REMARK   37  A    between atoms: _88  and  _91
REMARK   38  A    between atoms: _91  and  _92
REMARK   39  A    between atoms: _92  and  _93
REMARK   40  A    between atoms: _93  and  _94
REMARK   41  A    between atoms: _103  and  _105
REMARK   42  A    between atoms: _105  and  _106
REMARK   43  A    between atoms: _108  and  _110
REMARK   44  A    between atoms: _110  and  _111
REMARK   45  A    between atoms: _110  and  _113
REMARK   46  A    between atoms: _113  and  _114
REMARK   47  A    between atoms: _117  and  _119
REMARK   48  A    between atoms: _119  and  _120
REMARK   49  A    between atoms: _119  and  _122
REMARK   50  A    between atoms: _122  and  _123
REMARK   51  A    between atoms: _126  and  _128
REMARK   52  A    between atoms: _128  and  _129
REMARK   53  A    between atoms: _128  and  _131
REMARK   54  A    between atoms: _134  and  _136
REMARK   55  A    between atoms: _136  and  _137
REMARK   56  A    between atoms: _139  and  _141
REMARK   57  A    between atoms: _141  and  _142
REMARK   58  A    between atoms: _141  and  _144
REMARK   59  A    between atoms: _144  and  _145
REMARK   60  A    between atoms: _145  and  _146
REMARK   61  A    between atoms: _146  and  MG_294
REMARK   62  A    between atoms: _148  and  _150
REMARK   63  A    between atoms: _150  and  _151
REMARK   64  A    between atoms: _150  and  _153
REMARK   65  A    between atoms: _153  and  _154
REMARK   66  A    between atoms: _157  and  _159
REMARK   67  A    between atoms: _159  and  _160
REMARK   68  A    between atoms: _159  and  _162
REMARK   69  A    between atoms: _162  and  _163
REMARK   70  A    between atoms: _165  and  _167
REMARK   71  A    between atoms: _167  and  _168
REMARK   72  A    between atoms: _171  and  _173
REMARK   73  A    between atoms: _173  and  _174
REMARK   74  A    between atoms: _173  and  _176
REMARK   75  A    between atoms: _176  and  _177
REMARK   76  A    between atoms: _180  and  _182
REMARK   77  A    between atoms: _182  and  _183
REMARK   78  A    between atoms: _182  and  _185
REMARK   79  A    between atoms: _185  and  _186
REMARK   80  A    between atoms: _191  and  _192
REMARK   81  A    between atoms: _194  and  _196
REMARK   82  A    between atoms: _196  and  _197
REMARK   83  A    between atoms: _196  and  _199
REMARK   84  A    between atoms: _202  and  _204
REMARK   85  A    between atoms: _204  and  _205
REMARK   86  A    between atoms: _204  and  _207
REMARK   87  A    between atoms: _210  and  _212
REMARK   88  A    between atoms: _212  and  _213
REMARK   89  A    between atoms: _212  and  _215
REMARK   90  A    between atoms: _215  and  _216
REMARK   91  A    between atoms: _221  and  _223
REMARK   92  A    between atoms: _223  and  _224
REMARK   93  A    between atoms: _223  and  _226
REMARK   94  A    between atoms: _226  and  _227
REMARK   95  A    between atoms: _232  and  _234
REMARK   96  A    between atoms: _234  and  _235
REMARK   97  A    between atoms: _234  and  _237
REMARK   98  A    between atoms: _237  and  _238
REMARK   99  A    between atoms: _243  and  _245
REMARK  100  A    between atoms: _245  and  _246
REMARK  101  A    between atoms: _248  and  _250
REMARK  102  A    between atoms: _250  and  _251
REMARK  103  A    between atoms: _250  and  _253
REMARK  104  A    between atoms: _253  and  _254
REMARK  105  A    between atoms: _260  and  _262
REMARK  106  A    between atoms: _262  and  _263
REMARK  107  A    between atoms: _262  and  _265
REMARK  108  A    between atoms: _268  and  _270
REMARK  109  A    between atoms: _270  and  _271
REMARK  110  A    between atoms: _270  and  _273
REMARK  111  A    between atoms: _273  and  _274
REMARK  112  A    between atoms: _279  and  _281
REMARK  113  A    between atoms: _281  and  _282
REMARK  114  A    between atoms: _281  and  _284
REMARK  115  A    between atoms: _284  and  _285
REMARK  116  A    between atoms: _288  and  _290
REMARK  117  A    between atoms: _290  and  _291
REMARK                            x       y       z     vdW  Elec       q    Type
REMARK                         _______ _______ _______ _____ _____    ______ ____
ROOT
ATOM      1  O   HOH     1     -50.492   5.387  18.515  0.00  0.00    +0.000 OA
ENDROOT
TORSDOF 0
REMARK  Name = ../refined-set-2016/3hww/3hww_pocket.pdb
REMARK  117 active torsions:
REMARK  status: ('A' for Active; 'I' for Inactive)
REMARK    1  A    between atoms: _1  and  _3
REMARK    2  A    between atoms: _3  and  _4
REMARK    3  A    between atoms: _3  and  _6
REMARK    4  A    between atoms: _6  and  _7
REMARK    5  A    between atoms: _7  and  _8
REMARK    6  A    between atoms: _11  and  _13
REMARK    7  A    between atoms: _13  and  _14
REMARK    8  A    between atoms: _16  and  _18
REMARK    9  A    between atoms: _18  and  _19
REMARK   10  A    between atoms: _18  and  _21
REMARK   11  A    between atoms: _21  and  _22
REMARK   12  A    between atoms: _27  and  _29
REMARK   13  A    between atoms: _29  and  _30
REMARK   14  A    between atoms: _29  and  _32
REMARK   15  A    between atoms: _32  and  _33
REMARK   16  A    between atoms: _35  and  _37
REMARK   17  A    between atoms: _37  and  _38
REMARK   18  A    between atoms: _37  and  _40
REMARK   19  A    between atoms: _40  and  _41
REMARK   20  A    between atoms: _44  and  _46
REMARK   21  A    between atoms: _46  and  _47
REMARK   22  A    between atoms: _46  and  _49
REMARK   23  A    between atoms: _54  and  _55
REMARK   24  A    between atoms: _54  and  _57
REMARK   25  A    between atoms: _60  and  _62
REMARK   26  A    between atoms: _62  and  _63
REMARK   27  A    between atoms: _62  and  _65
REMARK   28  A    between atoms: _65  and  _66
REMARK   29  A    between atoms: _66  and  _67
REMARK   30  A    between atoms: _67  and  _68
REMARK   31  A    between atoms: _77  and  _79
REMARK   32  A    between atoms: _79  and  _80
REMARK   33  A    between atoms: _79  and  _82
REMARK   34  A    between atoms: _82  and  _83
REMARK   35  A    between atoms: _86  and  _88
REMARK   36  A    between atoms: _88  and  _89
REMARK   37  A    between atoms: _88  and  _91
REMARK   38  A    between atoms: _91  and  _92
REMARK   39  A    between atoms: _92  and  _93
REMARK   40  A    between atoms: _93  and  _94
REMARK   41  A    between atoms: _103  and  _105
REMARK   42  A    between atoms: _105  and  _106
REMARK   43  A    between atoms: _108  and  _110
REMARK   44  A    between atoms: _110  and  _111
REMARK   45  A    between atoms: _110  and  _113
REMARK   46  A    between atoms: _113  and  _114
REMARK   47  A    between atoms: _117  and  _119
REMARK   48  A    between atoms: _119  and  _120
REMARK   49  A    between atoms: _119  and  _122
REMARK   50  A    between atoms: _122  and  _123
REMARK   51  A    between atoms: _126  and  _128
REMARK   52  A    between atoms: _128  and  _129
REMARK   53  A    between atoms: _128  and  _131
REMARK   54  A    between atoms: _134  and  _136
REMARK   55  A    between atoms: _136  and  _137
REMARK   56  A    between atoms: _139  and  _141
REMARK   57  A    between atoms: _141  and  _142
REMARK   58  A    between atoms: _141  and  _144
REMARK   59  A    between atoms: _144  and  _145
REMARK   60  A    between atoms: _145  and  _146
REMARK   61  A    between atoms: _146  and  MG_294
REMARK   62  A    between atoms: _148  and  _150
REMARK   63  A    between atoms: _150  and  _151
REMARK   64  A    between atoms: _150  and  _153
REMARK   65  A    between atoms: _153  and  _154
REMARK   66  A    between atoms: _157  and  _159
REMARK   67  A    between atoms: _159  and  _160
REMARK   68  A    between atoms: _159  and  _162
REMARK   69  A    between atoms: _162  and  _163
REMARK   70  A    between atoms: _165  and  _167
REMARK   71  A    between atoms: _167  and  _168
REMARK   72  A    between atoms: _171  and  _173
REMARK   73  A    between atoms: _173  and  _174
REMARK   74  A    between atoms: _173  and  _176
REMARK   75  A    between atoms: _176  and  _177
REMARK   76  A    between atoms: _180  and  _182
REMARK   77  A    between atoms: _182  and  _183
REMARK   78  A    between atoms: _182  and  _185
REMARK   79  A    between atoms: _185  and  _186
REMARK   80  A    between atoms: _191  and  _192
REMARK   81  A    between atoms: _194  and  _196
REMARK   82  A    between atoms: _196  and  _197
REMARK   83  A    between atoms: _196  and  _199
REMARK   84  A    between atoms: _202  and  _204
REMARK   85  A    between atoms: _204  and  _205
REMARK   86  A    between atoms: _204  and  _207
REMARK   87  A    between atoms: _210  and  _212
REMARK   88  A    between atoms: _212  and  _213
REMARK   89  A    between atoms: _212  and  _215
REMARK   90  A    between atoms: _215  and  _216
REMARK   91  A    between atoms: _221  and  _223
REMARK   92  A    between atoms: _223  and  _224
REMARK   93  A    between atoms: _223  and  _226
REMARK   94  A    between atoms: _226  and  _227
REMARK   95  A    between atoms: _232  and  _234
REMARK   96  A    between atoms: _234  and  _235
REMARK   97  A    between atoms: _234  and  _237
REMARK   98  A    between atoms: _237  and  _238
REMARK   99  A    between atoms: _243  and  _245
REMARK  100  A    between atoms: _245  and  _246
REMARK  101  A    between atoms: _248  and  _250
REMARK  102  A    between atoms: _250  and  _251
REMARK  103  A    between atoms: _250  and  _253
REMARK  104  A    between atoms: _253  and  _254
REMARK  105  A    between atoms: _260  and  _262
REMARK  106  A    between atoms: _262  and  _263
REMARK  107  A    between atoms: _262  and  _265
REMARK  108  A    between atoms: _268  and  _270
REMARK  109  A    between atoms: _270  and  _271
REMARK  110  A    between atoms: _270  and  _273
REMARK  111  A    between atoms: _273  and  _274
REMARK  112  A    between atoms: _279  and  _281
REMARK  113  A    between atoms: _281  and  _282
REMARK  114  A    between atoms: _281  and  _284
REMARK  115  A    between atoms: _284  and  _285
REMARK  116  A    between atoms: _288  and  _290
REMARK  117  A    between atoms: _290  and  _291
REMARK                            x       y       z     vdW  Elec       q    Type
REMARK                         _______ _______ _______ _____ _____    ______ ____
ROOT
ATOM      1  O   HOH     1     -34.586   3.590   8.877  0.00  0.00    +0.000 OA
ENDROOT
TORSDOF 0
