REMARK  Name = ../refined-set-2016/4umb/4umb_pocket.pdb
REMARK  168 active torsions:
REMARK  status: ('A' for Active; 'I' for Inactive)
REMARK    1  A    between atoms: _1  and  _3
REMARK    2  A    between atoms: _3  and  _4
REMARK    3  A    between atoms: _3  and  _6
REMARK    4  A    between atoms: _6  and  _7
REMARK    5  A    between atoms: _11  and  _12
REMARK    6  A    between atoms: _17  and  _19
REMARK    7  A    between atoms: _19  and  _20
REMARK    8  A    between atoms: _19  and  _22
REMARK    9  A    between atoms: _22  and  _23
REMARK   10  A    between atoms: _23  and  MN_386
REMARK   11  A    between atoms: _24  and  _26
REMARK   12  A    between atoms: _26  and  _27
REMARK   13  A    between atoms: _26  and  _29
REMARK   14  A    between atoms: _29  and  _30
REMARK   15  A    between atoms: _32  and  _34
REMARK   16  A    between atoms: _34  and  _35
REMARK   17  A    between atoms: _34  and  _37
REMARK   18  A    between atoms: _37  and  _38
REMARK   19  A    between atoms: _38  and  _39
REMARK   20  A    between atoms: _39  and  _40
REMARK   21  A    between atoms: _49  and  _51
REMARK   22  A    between atoms: _51  and  _52
REMARK   23  A    between atoms: _51  and  _54
REMARK   24  A    between atoms: _54  and  _55
REMARK   25  A    between atoms: _60  and  _61
REMARK   26  A    between atoms: _63  and  _65
REMARK   27  A    between atoms: _65  and  _66
REMARK   28  A    between atoms: _65  and  _68
REMARK   29  A    between atoms: _68  and  _69
REMARK   30  A    between atoms: _69  and  _70
REMARK   31  A    between atoms: _73  and  _75
REMARK   32  A    between atoms: _75  and  _76
REMARK   33  A    between atoms: _75  and  _78
REMARK   34  A    between atoms: _78  and  _79
REMARK   35  A    between atoms: _79  and  _80
REMARK   36  A    between atoms: _80  and  _81
REMARK   37  A    between atoms: _81  and  _82
REMARK   38  A    between atoms: _87  and  _88
REMARK   39  A    between atoms: _93  and  _95
REMARK   40  A    between atoms: _95  and  _96
REMARK   41  A    between atoms: _95  and  _98
REMARK   42  A    between atoms: _98  and  _99
REMARK   43  A    between atoms: _99  and  _100
REMARK   44  A    between atoms: _100  and  _101
REMARK   45  A    between atoms: _110  and  _112
REMARK   46  A    between atoms: _112  and  _113
REMARK   47  A    between atoms: _112  and  _115
REMARK   48  A    between atoms: _115  and  _116
REMARK   49  A    between atoms: _119  and  _121
REMARK   50  A    between atoms: _121  and  _122
REMARK   51  A    between atoms: _121  and  _124
REMARK   52  A    between atoms: _124  and  _125
REMARK   53  A    between atoms: _128  and  _130
REMARK   54  A    between atoms: _130  and  _131
REMARK   55  A    between atoms: _130  and  _133
REMARK   56  A    between atoms: _133  and  _134
REMARK   57  A    between atoms: _134  and  _135
REMARK   58  A    between atoms: _138  and  _140
REMARK   59  A    between atoms: _140  and  _141
REMARK   60  A    between atoms: _140  and  _143
REMARK   61  A    between atoms: _143  and  _144
REMARK   62  A    between atoms: _147  and  _149
REMARK   63  A    between atoms: _149  and  _150
REMARK   64  A    between atoms: _153  and  _155
REMARK   65  A    between atoms: _155  and  _156
REMARK   66  A    between atoms: _155  and  _158
REMARK   67  A    between atoms: _158  and  _159
REMARK   68  A    between atoms: _162  and  _164
REMARK   69  A    between atoms: _164  and  _165
REMARK   70  A    between atoms: _167  and  _169
REMARK   71  A    between atoms: _169  and  _170
REMARK   72  A    between atoms: _173  and  _175
REMARK   73  A    between atoms: _175  and  _176
REMARK   74  A    between atoms: _175  and  _178
REMARK   75  A    between atoms: _178  and  _179
REMARK   76  A    between atoms: _179  and  _180
REMARK   77  A    between atoms: _180  and  _181
REMARK   78  A    between atoms: _190  and  _192
REMARK   79  A    between atoms: _192  and  _193
REMARK   80  A    between atoms: _192  and  _195
REMARK   81  A    between atoms: _195  and  _196
REMARK   82  A    between atoms: _199  and  _201
REMARK   83  A    between atoms: _201  and  _202
REMARK   84  A    between atoms: _201  and  _204
REMARK   85  A    between atoms: _204  and  _205
REMARK   86  A    between atoms: _208  and  _210
REMARK   87  A    between atoms: _210  and  _211
REMARK   88  A    between atoms: _210  and  _213
REMARK   89  A    between atoms: _213  and  _214
REMARK   90  A    between atoms: _214  and  _215
REMARK   91  A    between atoms: _215  and  _216
REMARK   92  A    between atoms: _216  and  _217
REMARK   93  A    between atoms: _221  and  _223
REMARK   94  A    between atoms: _223  and  _224
REMARK   95  A    between atoms: _223  and  _226
REMARK   96  A    between atoms: _226  and  _227
REMARK   97  A    between atoms: _232  and  _234
REMARK   98  A    between atoms: _234  and  _235
REMARK   99  A    between atoms: _237  and  _239
REMARK  100  A    between atoms: _239  and  _240
REMARK  101  A    between atoms: _239  and  _242
REMARK  102  A    between atoms: _242  and  _243
REMARK  103  A    between atoms: _246  and  _248
REMARK  104  A    between atoms: _248  and  _249
REMARK  105  A    between atoms: _248  and  _251
REMARK  106  A    between atoms: _251  and  _252
REMARK  107  A    between atoms: _255  and  _257
REMARK  108  A    between atoms: _257  and  _258
REMARK  109  A    between atoms: _257  and  _260
REMARK  110  A    between atoms: _260  and  _261
REMARK  111  A    between atoms: _264  and  _266
REMARK  112  A    between atoms: _266  and  _267
REMARK  113  A    between atoms: _266  and  _269
REMARK  114  A    between atoms: _269  and  _270
REMARK  115  A    between atoms: _270  and  _271
REMARK  116  A    between atoms: _271  and  _272
REMARK  117  A    between atoms: _281  and  _283
REMARK  118  A    between atoms: _283  and  _284
REMARK  119  A    between atoms: _286  and  _288
REMARK  120  A    between atoms: _288  and  _289
REMARK  121  A    between atoms: _288  and  _291
REMARK  122  A    between atoms: _291  and  _292
REMARK  123  A    between atoms: _295  and  _297
REMARK  124  A    between atoms: _297  and  _298
REMARK  125  A    between atoms: _297  and  _300
REMARK  126  A    between atoms: _300  and  _301
REMARK  127  A    between atoms: _303  and  _305
REMARK  128  A    between atoms: _305  and  _306
REMARK  129  A    between atoms: _305  and  _308
REMARK  130  A    between atoms: _308  and  _309
REMARK  131  A    between atoms: _313  and  MN_386
REMARK  132  A    between atoms: _314  and  _316
REMARK  133  A    between atoms: _316  and  _317
REMARK  134  A    between atoms: _320  and  _322
REMARK  135  A    between atoms: _322  and  _323
REMARK  136  A    between atoms: _322  and  _325
REMARK  137  A    between atoms: _325  and  _326
REMARK  138  A    between atoms: _331  and  _333
REMARK  139  A    between atoms: _333  and  _334
REMARK  140  A    between atoms: _333  and  _336
REMARK  141  A    between atoms: _336  and  _337
REMARK  142  A    between atoms: _337  and  _338
REMARK  143  A    between atoms: _340  and  _342
REMARK  144  A    between atoms: _342  and  _343
REMARK  145  A    between atoms: _342  and  _345
REMARK  146  A    between atoms: _345  and  _346
REMARK  147  A    between atoms: _346  and  _347
REMARK  148  A    between atoms: _347  and  _349
REMARK  149  A    between atoms: _349  and  MN_386
REMARK  150  A    between atoms: _350  and  _352
REMARK  151  A    between atoms: _352  and  _353
REMARK  152  A    between atoms: _352  and  _355
REMARK  153  A    between atoms: _355  and  _356
REMARK  154  A    between atoms: _358  and  _360
REMARK  155  A    between atoms: _360  and  _361
REMARK  156  A    between atoms: _360  and  _363
REMARK  157  A    between atoms: _363  and  _364
REMARK  158  A    between atoms: _367  and  _369
REMARK  159  A    between atoms: _369  and  _370
REMARK  160  A    between atoms: _369  and  _372
REMARK  161  A    between atoms: _372  and  _373
REMARK  162  A    between atoms: _373  and  _375
REMARK  163  A    between atoms: _375  and  MN_386
REMARK  164  A    between atoms: _376  and  _378
REMARK  165  A    between atoms: _378  and  _379
REMARK  166  A    between atoms: _378  and  _381
REMARK  167  A    between atoms: _381  and  _382
REMARK  168  A    between atoms: _382  and  _383
REMARK                            x       y       z     vdW  Elec       q    Type
REMARK                         _______ _______ _______ _____ _____    ______ ____
ROOT
ATOM      1  CA  ILE A   1      52.055 -14.723   0.604  0.00  0.00    +0.133 C 
ENDROOT
BRANCH   1   2
ATOM      2  N   ILE A   1      53.504 -14.632   0.710  0.00  0.00    -0.239 NA
ATOM      3  H   ILE A   1      54.086 -15.267   0.128  0.00  0.00    +0.142 HD
ENDBRANCH   1   2
BRANCH   1   4
ATOM      4  C   ILE A   1      51.631 -15.797   1.575  0.00  0.00    +0.224 C 
ATOM      5  O   ILE A   1      51.822 -16.990   1.325  0.00  0.00    -0.287 OA
ENDBRANCH   1   4
BRANCH   1   6
ATOM      6  CB  ILE A   1      51.643 -15.113  -0.836  0.00  0.00    +0.023 C 
ATOM      7  CG2 ILE A   1      50.141 -15.304  -0.942  0.00  0.00    +0.002 C 
BRANCH   6   8
ATOM      8  CG1 ILE A   1      52.117 -14.059  -1.824  0.00  0.00    +0.002 C 
ATOM      9  CD1 ILE A   1      51.506 -12.677  -1.655  0.00  0.00    +0.000 C 
ENDBRANCH   6   8
ENDBRANCH   1   6
TORSDOF 4
REMARK  Name = ../refined-set-2016/4umb/4umb_pocket.pdb
REMARK  168 active torsions:
REMARK  status: ('A' for Active; 'I' for Inactive)
REMARK    1  A    between atoms: _1  and  _3
REMARK    2  A    between atoms: _3  and  _4
REMARK    3  A    between atoms: _3  and  _6
REMARK    4  A    between atoms: _6  and  _7
REMARK    5  A    between atoms: _11  and  _12
REMARK    6  A    between atoms: _17  and  _19
REMARK    7  A    between atoms: _19  and  _20
REMARK    8  A    between atoms: _19  and  _22
REMARK    9  A    between atoms: _22  and  _23
REMARK   10  A    between atoms: _23  and  MN_386
REMARK   11  A    between atoms: _24  and  _26
REMARK   12  A    between atoms: _26  and  _27
REMARK   13  A    between atoms: _26  and  _29
REMARK   14  A    between atoms: _29  and  _30
REMARK   15  A    between atoms: _32  and  _34
REMARK   16  A    between atoms: _34  and  _35
REMARK   17  A    between atoms: _34  and  _37
REMARK   18  A    between atoms: _37  and  _38
REMARK   19  A    between atoms: _38  and  _39
REMARK   20  A    between atoms: _39  and  _40
REMARK   21  A    between atoms: _49  and  _51
REMARK   22  A    between atoms: _51  and  _52
REMARK   23  A    between atoms: _51  and  _54
REMARK   24  A    between atoms: _54  and  _55
REMARK   25  A    between atoms: _60  and  _61
REMARK   26  A    between atoms: _63  and  _65
REMARK   27  A    between atoms: _65  and  _66
REMARK   28  A    between atoms: _65  and  _68
REMARK   29  A    between atoms: _68  and  _69
REMARK   30  A    between atoms: _69  and  _70
REMARK   31  A    between atoms: _73  and  _75
REMARK   32  A    between atoms: _75  and  _76
REMARK   33  A    between atoms: _75  and  _78
REMARK   34  A    between atoms: _78  and  _79
REMARK   35  A    between atoms: _79  and  _80
REMARK   36  A    between atoms: _80  and  _81
REMARK   37  A    between atoms: _81  and  _82
REMARK   38  A    between atoms: _87  and  _88
REMARK   39  A    between atoms: _93  and  _95
REMARK   40  A    between atoms: _95  and  _96
REMARK   41  A    between atoms: _95  and  _98
REMARK   42  A    between atoms: _98  and  _99
REMARK   43  A    between atoms: _99  and  _100
REMARK   44  A    between atoms: _100  and  _101
REMARK   45  A    between atoms: _110  and  _112
REMARK   46  A    between atoms: _112  and  _113
REMARK   47  A    between atoms: _112  and  _115
REMARK   48  A    between atoms: _115  and  _116
REMARK   49  A    between atoms: _119  and  _121
REMARK   50  A    between atoms: _121  and  _122
REMARK   51  A    between atoms: _121  and  _124
REMARK   52  A    between atoms: _124  and  _125
REMARK   53  A    between atoms: _128  and  _130
REMARK   54  A    between atoms: _130  and  _131
REMARK   55  A    between atoms: _130  and  _133
REMARK   56  A    between atoms: _133  and  _134
REMARK   57  A    between atoms: _134  and  _135
REMARK   58  A    between atoms: _138  and  _140
REMARK   59  A    between atoms: _140  and  _141
REMARK   60  A    between atoms: _140  and  _143
REMARK   61  A    between atoms: _143  and  _144
REMARK   62  A    between atoms: _147  and  _149
REMARK   63  A    between atoms: _149  and  _150
REMARK   64  A    between atoms: _153  and  _155
REMARK   65  A    between atoms: _155  and  _156
REMARK   66  A    between atoms: _155  and  _158
REMARK   67  A    between atoms: _158  and  _159
REMARK   68  A    between atoms: _162  and  _164
REMARK   69  A    between atoms: _164  and  _165
REMARK   70  A    between atoms: _167  and  _169
REMARK   71  A    between atoms: _169  and  _170
REMARK   72  A    between atoms: _173  and  _175
REMARK   73  A    between atoms: _175  and  _176
REMARK   74  A    between atoms: _175  and  _178
REMARK   75  A    between atoms: _178  and  _179
REMARK   76  A    between atoms: _179  and  _180
REMARK   77  A    between atoms: _180  and  _181
REMARK   78  A    between atoms: _190  and  _192
REMARK   79  A    between atoms: _192  and  _193
REMARK   80  A    between atoms: _192  and  _195
REMARK   81  A    between atoms: _195  and  _196
REMARK   82  A    between atoms: _199  and  _201
REMARK   83  A    between atoms: _201  and  _202
REMARK   84  A    between atoms: _201  and  _204
REMARK   85  A    between atoms: _204  and  _205
REMARK   86  A    between atoms: _208  and  _210
REMARK   87  A    between atoms: _210  and  _211
REMARK   88  A    between atoms: _210  and  _213
REMARK   89  A    between atoms: _213  and  _214
REMARK   90  A    between atoms: _214  and  _215
REMARK   91  A    between atoms: _215  and  _216
REMARK   92  A    between atoms: _216  and  _217
REMARK   93  A    between atoms: _221  and  _223
REMARK   94  A    between atoms: _223  and  _224
REMARK   95  A    between atoms: _223  and  _226
REMARK   96  A    between atoms: _226  and  _227
REMARK   97  A    between atoms: _232  and  _234
REMARK   98  A    between atoms: _234  and  _235
REMARK   99  A    between atoms: _237  and  _239
REMARK  100  A    between atoms: _239  and  _240
REMARK  101  A    between atoms: _239  and  _242
REMARK  102  A    between atoms: _242  and  _243
REMARK  103  A    between atoms: _246  and  _248
REMARK  104  A    between atoms: _248  and  _249
REMARK  105  A    between atoms: _248  and  _251
REMARK  106  A    between atoms: _251  and  _252
REMARK  107  A    between atoms: _255  and  _257
REMARK  108  A    between atoms: _257  and  _258
REMARK  109  A    between atoms: _257  and  _260
REMARK  110  A    between atoms: _260  and  _261
REMARK  111  A    between atoms: _264  and  _266
REMARK  112  A    between atoms: _266  and  _267
REMARK  113  A    between atoms: _266  and  _269
REMARK  114  A    between atoms: _269  and  _270
REMARK  115  A    between atoms: _270  and  _271
REMARK  116  A    between atoms: _271  and  _272
REMARK  117  A    between atoms: _281  and  _283
REMARK  118  A    between atoms: _283  and  _284
REMARK  119  A    between atoms: _286  and  _288
REMARK  120  A    between atoms: _288  and  _289
REMARK  121  A    between atoms: _288  and  _291
REMARK  122  A    between atoms: _291  and  _292
REMARK  123  A    between atoms: _295  and  _297
REMARK  124  A    between atoms: _297  and  _298
REMARK  125  A    between atoms: _297  and  _300
REMARK  126  A    between atoms: _300  and  _301
REMARK  127  A    between atoms: _303  and  _305
REMARK  128  A    between atoms: _305  and  _306
REMARK  129  A    between atoms: _305  and  _308
REMARK  130  A    between atoms: _308  and  _309
REMARK  131  A    between atoms: _313  and  MN_386
REMARK  132  A    between atoms: _314  and  _316
REMARK  133  A    between atoms: _316  and  _317
REMARK  134  A    between atoms: _320  and  _322
REMARK  135  A    between atoms: _322  and  _323
REMARK  136  A    between atoms: _322  and  _325
REMARK  137  A    between atoms: _325  and  _326
REMARK  138  A    between atoms: _331  and  _333
REMARK  139  A    between atoms: _333  and  _334
REMARK  140  A    between atoms: _333  and  _336
REMARK  141  A    between atoms: _336  and  _337
REMARK  142  A    between atoms: _337  and  _338
REMARK  143  A    between atoms: _340  and  _342
REMARK  144  A    between atoms: _342  and  _343
REMARK  145  A    between atoms: _342  and  _345
REMARK  146  A    between atoms: _345  and  _346
REMARK  147  A    between atoms: _346  and  _347
REMARK  148  A    between atoms: _347  and  _349
REMARK  149  A    between atoms: _349  and  MN_386
REMARK  150  A    between atoms: _350  and  _352
REMARK  151  A    between atoms: _352  and  _353
REMARK  152  A    between atoms: _352  and  _355
REMARK  153  A    between atoms: _355  and  _356
REMARK  154  A    between atoms: _358  and  _360
REMARK  155  A    between atoms: _360  and  _361
REMARK  156  A    between atoms: _360  and  _363
REMARK  157  A    between atoms: _363  and  _364
REMARK  158  A    between atoms: _367  and  _369
REMARK  159  A    between atoms: _369  and  _370
REMARK  160  A    between atoms: _369  and  _372
REMARK  161  A    between atoms: _372  and  _373
REMARK  162  A    between atoms: _373  and  _375
REMARK  163  A    between atoms: _375  and  MN_386
REMARK  164  A    between atoms: _376  and  _378
REMARK  165  A    between atoms: _378  and  _379
REMARK  166  A    between atoms: _378  and  _381
REMARK  167  A    between atoms: _381  and  _382
REMARK  168  A    between atoms: _382  and  _383
REMARK                            x       y       z     vdW  Elec       q    Type
REMARK                         _______ _______ _______ _____ _____    ______ ____
ROOT
ATOM      1 MN   UNK A   2      45.004 -24.426  -0.750  0.00  0.00    +0.000 Mn
ENDROOT
BRANCH   1   2
ATOM      2  N   UNK A   2      47.029 -24.731  -1.900  0.00  0.00    +0.000 N 
ATOM      3  C   UNK A   2      48.087 -23.952  -2.052  0.00  0.00    +0.000 A 
ATOM      4  N   UNK A   2      49.050 -24.661  -2.620  0.00  0.00    +0.000 NA
ATOM      5  C   UNK A   2      48.588 -25.935  -2.874  0.00  0.00    +0.000 A 
ATOM      6  C   UNK A   2      47.321 -25.981  -2.393  0.00  0.00    +0.000 A 
BRANCH   5   7
ATOM      7  C   UNK A   2      49.464 -27.008  -3.424  0.00  0.00    +0.000 C 
BRANCH   7   8
ATOM      8  C   UNK A   2      49.866 -27.999  -2.345  0.00  0.00    +0.000 C 
BRANCH   8   9
ATOM      9  C   UNK A   2      50.806 -29.129  -2.770  0.00  0.00    +0.000 C 
ATOM     10  O   UNK A   2      51.157 -29.948  -1.931  0.00  0.00    +0.000 OA
ATOM     11  N   SER A   3      51.212 -29.201  -4.041  0.00  0.00    +0.000 N 
ATOM     12  H   SER A   3      51.013 -28.417  -4.694  0.00  0.00    +0.000 HD
BRANCH  11  13
ATOM     13  CA  SER A   3      51.936 -30.381  -4.516  0.00  0.00    +0.000 C 
ATOM     14  CB  SER A   3      51.817 -30.525  -6.030  0.00  0.00    +0.000 C 
BRANCH  13  15
ATOM     15  C   SER A   3      53.386 -30.354  -4.097  0.00  0.00    +0.000 C 
ATOM     16  N   ASN A   4      53.869 -29.215  -3.618  0.00  0.00    +0.000 N 
ATOM     17  H   ASN A   4      53.287 -28.353  -3.629  0.00  0.00    +0.000 HD
ATOM     18  O   SER A   3      54.073 -31.362  -4.191  0.00  0.00    +0.000 OA
BRANCH  16  19
ATOM     19  CA  ASN A   4      55.225 -29.180  -3.075  0.00  0.00    +0.000 C 
BRANCH  19  20
ATOM     20  C   ASN A   4      55.327 -29.803  -1.696  0.00  0.00    +0.000 C 
ATOM     21  O   ASN A   4      56.375 -30.313  -1.335  0.00  0.00    +0.000 OA
ENDBRANCH  19  20
BRANCH  19  22
ATOM     22  CB  ASN A   4      55.813 -27.766  -3.128  0.00  0.00    +0.000 C 
BRANCH  22  23
ATOM     23  CG  ASN A   4      56.430 -27.451  -4.491  0.00  0.00    +0.000 C 
ATOM     24  ND2 ASN A   4      56.542 -26.179  -4.821  0.00  0.00    +0.000 N 
ATOM     25 HD21 ASN A   4      56.220 -25.441  -4.163  0.00  0.00    +0.000 HD
ATOM     26 HD22 ASN A   4      56.953 -25.914  -5.739  0.00  0.00    +0.000 HD
ATOM     27  OD1 ASN A   4      56.798 -28.365  -5.237  0.00  0.00    +0.000 OA
ENDBRANCH  22  23
ENDBRANCH  19  22
ENDBRANCH  16  19
ENDBRANCH  13  15
ENDBRANCH  11  13
ENDBRANCH   8   9
BRANCH   8  28
ATOM     28  N   UNK A   2      50.420 -27.262  -1.246  0.00  0.00    +0.000 N 
ATOM     29  H   UNK A   2      49.812 -27.087  -0.420  0.00  0.00    +0.000 HD
ATOM     30  C   UNK A   1      51.665 -26.788  -1.218  0.00  0.00    +0.000 C 
ATOM     31  O   UNK A   1      52.496 -26.986  -2.119  0.00  0.00    +0.000 OA
BRANCH  30  32
ATOM     32  C   UNK A   1      52.056 -26.041   0.092  0.00  0.00    +0.000 C 
BRANCH  32  33
ATOM     33  N   UNK A   1      53.198 -25.162  -0.110  0.00  0.00    +0.000 NA
ATOM     34  H   UNK A   1      53.055 -24.254  -0.597  0.00  0.00    +0.000 HD
ENDBRANCH  32  33
BRANCH  32  35
ATOM     35  C   UNK A   1      50.869 -25.230   0.660  0.00  0.00    +0.000 C 
BRANCH  35  36
ATOM     36  O   UNK A   1      49.946 -26.058   1.351  0.00  0.00    +0.000 OA
ATOM     37  H   UNK A   1      49.203 -25.504   1.699  0.00  0.00    +0.000 HD
ENDBRANCH  35  36
ENDBRANCH  32  35
ENDBRANCH  30  32
ENDBRANCH   8  28
ENDBRANCH   7   8
ENDBRANCH   5   7
ENDBRANCH   1   2
BRANCH   1  38
ATOM     38  S   UNK A   2      42.882 -23.846   0.637  0.00  0.00    +0.000 S 
BRANCH  38  39
ATOM     39  C   UNK A   2      43.478 -23.242   2.235  0.00  0.00    +0.000 C 
BRANCH  39  40
ATOM     40  C   UNK A   2      43.790 -21.736   2.225  0.00  0.00    +0.000 C 
BRANCH  40  41
ATOM     41  C   UNK A   2      42.588 -20.949   1.685  0.00  0.00    +0.000 C 
ATOM     42  N   SER A   3      41.577 -20.793   2.536  0.00  0.00    +0.000 N 
ATOM     43  H   SER A   3      41.653 -21.219   3.482  0.00  0.00    +0.000 HD
ATOM     44  O   UNK A   2      42.586 -20.483   0.526  0.00  0.00    +0.000 OA
BRANCH  42  45
ATOM     45  CA  SER A   3      40.358 -20.045   2.199  0.00  0.00    +0.000 C 
BRANCH  45  46
ATOM     46  CB  SER A   3      39.846 -19.281   3.390  0.00  0.00    +0.000 C 
ATOM     47  OG  SER A   3      40.013 -19.717   4.539  0.00  0.00    +0.000 OA
ENDBRANCH  45  46
BRANCH  45  48
ATOM     48  C   SER A   3      39.282 -21.010   1.752  0.00  0.00    +0.000 C 
BRANCH  48  49
ATOM     49  O   SER A   3      39.008 -21.982   2.762  0.00  0.00    +0.000 OA
ATOM     50  H   SER A   3      39.832 -22.495   2.957  0.00  0.00    +0.000 HD
ENDBRANCH  48  49
ENDBRANCH  45  48
ENDBRANCH  42  45
ENDBRANCH  40  41
BRANCH  40  52
ATOM     51  C   UNK A   1      44.393 -19.957   3.719  0.00  0.00    +0.000 C 
ATOM     52  N   UNK A   2      44.143 -21.251   3.537  0.00  0.00    +0.000 N 
ATOM     53  H   UNK A   2      44.202 -21.911   4.338  0.00  0.00    +0.000 HD
ATOM     54  O   UNK A   1      44.482 -19.139   2.790  0.00  0.00    +0.000 OA
BRANCH  51  59
ATOM     55  N   UNK A   1      45.352 -18.352   5.365  0.00  0.00    +0.000 NA
ATOM     56  C   UNK A   1      44.691 -17.288   6.145  0.00  0.00    +0.000 C 
ATOM     57  C   UNK A   1      43.456 -17.960   6.667  0.00  0.00    +0.000 C 
ATOM     58  C   UNK A   1      43.127 -18.965   5.600  0.00  0.00    +0.000 C 
ATOM     59  C   UNK A   1      44.489 -19.495   5.157  0.00  0.00    +0.000 C 
ENDBRANCH  51  59
ENDBRANCH  40  52
ENDBRANCH  39  40
ENDBRANCH  38  39
ENDBRANCH   1  38
BRANCH   1  60
ATOM     60  O   UNK A   1      46.189 -23.410   0.538  0.00  0.00    +0.000 OA
BRANCH  60  61
ATOM     61  C   UNK A   1      47.157 -23.899   1.139  0.00  0.00    +0.000 C 
ATOM     62  O   UNK A   1      47.389 -25.120   1.180  0.00  0.00    +0.000 OA
BRANCH  61  63
ATOM     63  C   UNK A   1      48.089 -22.907   1.796  0.00  0.00    +0.000 C 
BRANCH  63  64
ATOM     64  C   UNK A   1      48.450 -23.233   3.263  0.00  0.00    +0.000 C 
BRANCH  64  65
ATOM     65  C   UNK A   1      49.127 -22.031   3.940  0.00  0.00    +0.000 C 
BRANCH  65  66
ATOM     66  N   UNK A   1      50.459 -21.851   3.429  0.00  0.00    +0.000 NA
ATOM     67  H   UNK A   1      51.039 -22.693   3.237  0.00  0.00    +0.000 HD
ENDBRANCH  65  66
BRANCH  65  68
ATOM     68  C   UNK A   1      49.159 -22.173   5.477  0.00  0.00    +0.000 C 
ATOM     69  O   UNK A   1      49.556 -23.200   6.008  0.00  0.00    +0.000 OA
ENDBRANCH  65  68
ENDBRANCH  64  65
ENDBRANCH  63  64
ENDBRANCH  61  63
ENDBRANCH  60  61
ENDBRANCH   1  60
BRANCH   1  70
ATOM     70  O   UNK A   2      44.689 -26.248  -0.723  0.00  0.00    +0.000 OA
BRANCH  70  71
ATOM     71  C   UNK A   2      44.187 -27.088   0.061  0.00  0.00    +0.000 C 
ATOM     72  O   UNK A   2      43.446 -28.015  -0.303  0.00  0.00    +0.000 OA
BRANCH  71  73
ATOM     73  C   UNK A   2      44.504 -26.973   1.538  0.00  0.00    +0.000 C 
BRANCH  73  74
ATOM     74  C   UNK A   2      43.383 -27.492   2.443  0.00  0.00    +0.000 C 
BRANCH  74  75
ATOM     75  N   UNK A   2      42.113 -26.785   2.245  0.00  0.00    +0.000 N 
ATOM     76  C   UNK A   1      41.032 -27.167   2.931  0.00  0.00    +0.000 C 
ATOM     77  O   UNK A   1      41.078 -28.070   3.787  0.00  0.00    +0.000 OA
ATOM     78  H   UNK A   2      42.054 -25.992   1.575  0.00  0.00    +0.000 HD
BRANCH  76  79
ATOM     79  C   UNK A   1      39.681 -26.472   2.672  0.00  0.00    +0.000 C 
BRANCH  79  80
ATOM     80  C   UNK A   1      39.708 -25.326   1.635  0.00  0.00    +0.000 C 
ATOM     81  C   UNK A   1      38.277 -24.976   1.198  0.00  0.00    +0.000 C 
BRANCH  80  82
ATOM     82  O   UNK A   1      40.302 -24.150   2.200  0.00  0.00    +0.000 OA
ATOM     83  H   UNK A   1      39.774 -23.860   2.986  0.00  0.00    +0.000 HD
ENDBRANCH  80  82
ENDBRANCH  79  80
BRANCH  79  84
ATOM     84  N   UNK A   1      39.164 -25.999   3.976  0.00  0.00    +0.000 NA
ATOM     85  H   UNK A   1      39.688 -25.258   4.483  0.00  0.00    +0.000 HD
ENDBRANCH  79  84
ENDBRANCH  76  79
ENDBRANCH  74  75
BRANCH  74  86
ATOM     86  C   UNK A   2      43.829 -27.295   3.889  0.00  0.00    +0.000 C 
ATOM     87  O   UNK A   2      43.610 -26.249   4.484  0.00  0.00    +0.000 OA
ENDBRANCH  74  86
ENDBRANCH  73  74
ENDBRANCH  71  73
ENDBRANCH  70  71
ENDBRANCH   1  70
TORSDOF 42
REMARK  Name = ../refined-set-2016/4umb/4umb_pocket.pdb
REMARK  168 active torsions:
REMARK  status: ('A' for Active; 'I' for Inactive)
REMARK    1  A    between atoms: _1  and  _3
REMARK    2  A    between atoms: _3  and  _4
REMARK    3  A    between atoms: _3  and  _6
REMARK    4  A    between atoms: _6  and  _7
REMARK    5  A    between atoms: _11  and  _12
REMARK    6  A    between atoms: _17  and  _19
REMARK    7  A    between atoms: _19  and  _20
REMARK    8  A    between atoms: _19  and  _22
REMARK    9  A    between atoms: _22  and  _23
REMARK   10  A    between atoms: _23  and  MN_386
REMARK   11  A    between atoms: _24  and  _26
REMARK   12  A    between atoms: _26  and  _27
REMARK   13  A    between atoms: _26  and  _29
REMARK   14  A    between atoms: _29  and  _30
REMARK   15  A    between atoms: _32  and  _34
REMARK   16  A    between atoms: _34  and  _35
REMARK   17  A    between atoms: _34  and  _37
REMARK   18  A    between atoms: _37  and  _38
REMARK   19  A    between atoms: _38  and  _39
REMARK   20  A    between atoms: _39  and  _40
REMARK   21  A    between atoms: _49  and  _51
REMARK   22  A    between atoms: _51  and  _52
REMARK   23  A    between atoms: _51  and  _54
REMARK   24  A    between atoms: _54  and  _55
REMARK   25  A    between atoms: _60  and  _61
REMARK   26  A    between atoms: _63  and  _65
REMARK   27  A    between atoms: _65  and  _66
REMARK   28  A    between atoms: _65  and  _68
REMARK   29  A    between atoms: _68  and  _69
REMARK   30  A    between atoms: _69  and  _70
REMARK   31  A    between atoms: _73  and  _75
REMARK   32  A    between atoms: _75  and  _76
REMARK   33  A    between atoms: _75  and  _78
REMARK   34  A    between atoms: _78  and  _79
REMARK   35  A    between atoms: _79  and  _80
REMARK   36  A    between atoms: _80  and  _81
REMARK   37  A    between atoms: _81  and  _82
REMARK   38  A    between atoms: _87  and  _88
REMARK   39  A    between atoms: _93  and  _95
REMARK   40  A    between atoms: _95  and  _96
REMARK   41  A    between atoms: _95  and  _98
REMARK   42  A    between atoms: _98  and  _99
REMARK   43  A    between atoms: _99  and  _100
REMARK   44  A    between atoms: _100  and  _101
REMARK   45  A    between atoms: _110  and  _112
REMARK   46  A    between atoms: _112  and  _113
REMARK   47  A    between atoms: _112  and  _115
REMARK   48  A    between atoms: _115  and  _116
REMARK   49  A    between atoms: _119  and  _121
REMARK   50  A    between atoms: _121  and  _122
REMARK   51  A    between atoms: _121  and  _124
REMARK   52  A    between atoms: _124  and  _125
REMARK   53  A    between atoms: _128  and  _130
REMARK   54  A    between atoms: _130  and  _131
REMARK   55  A    between atoms: _130  and  _133
REMARK   56  A    between atoms: _133  and  _134
REMARK   57  A    between atoms: _134  and  _135
REMARK   58  A    between atoms: _138  and  _140
REMARK   59  A    between atoms: _140  and  _141
REMARK   60  A    between atoms: _140  and  _143
REMARK   61  A    between atoms: _143  and  _144
REMARK   62  A    between atoms: _147  and  _149
REMARK   63  A    between atoms: _149  and  _150
REMARK   64  A    between atoms: _153  and  _155
REMARK   65  A    between atoms: _155  and  _156
REMARK   66  A    between atoms: _155  and  _158
REMARK   67  A    between atoms: _158  and  _159
REMARK   68  A    between atoms: _162  and  _164
REMARK   69  A    between atoms: _164  and  _165
REMARK   70  A    between atoms: _167  and  _169
REMARK   71  A    between atoms: _169  and  _170
REMARK   72  A    between atoms: _173  and  _175
REMARK   73  A    between atoms: _175  and  _176
REMARK   74  A    between atoms: _175  and  _178
REMARK   75  A    between atoms: _178  and  _179
REMARK   76  A    between atoms: _179  and  _180
REMARK   77  A    between atoms: _180  and  _181
REMARK   78  A    between atoms: _190  and  _192
REMARK   79  A    between atoms: _192  and  _193
REMARK   80  A    between atoms: _192  and  _195
REMARK   81  A    between atoms: _195  and  _196
REMARK   82  A    between atoms: _199  and  _201
REMARK   83  A    between atoms: _201  and  _202
REMARK   84  A    between atoms: _201  and  _204
REMARK   85  A    between atoms: _204  and  _205
REMARK   86  A    between atoms: _208  and  _210
REMARK   87  A    between atoms: _210  and  _211
REMARK   88  A    between atoms: _210  and  _213
REMARK   89  A    between atoms: _213  and  _214
REMARK   90  A    between atoms: _214  and  _215
REMARK   91  A    between atoms: _215  and  _216
REMARK   92  A    between atoms: _216  and  _217
REMARK   93  A    between atoms: _221  and  _223
REMARK   94  A    between atoms: _223  and  _224
REMARK   95  A    between atoms: _223  and  _226
REMARK   96  A    between atoms: _226  and  _227
REMARK   97  A    between atoms: _232  and  _234
REMARK   98  A    between atoms: _234  and  _235
REMARK   99  A    between atoms: _237  and  _239
REMARK  100  A    between atoms: _239  and  _240
REMARK  101  A    between atoms: _239  and  _242
REMARK  102  A    between atoms: _242  and  _243
REMARK  103  A    between atoms: _246  and  _248
REMARK  104  A    between atoms: _248  and  _249
REMARK  105  A    between atoms: _248  and  _251
REMARK  106  A    between atoms: _251  and  _252
REMARK  107  A    between atoms: _255  and  _257
REMARK  108  A    between atoms: _257  and  _258
REMARK  109  A    between atoms: _257  and  _260
REMARK  110  A    between atoms: _260  and  _261
REMARK  111  A    between atoms: _264  and  _266
REMARK  112  A    between atoms: _266  and  _267
REMARK  113  A    between atoms: _266  and  _269
REMARK  114  A    between atoms: _269  and  _270
REMARK  115  A    between atoms: _270  and  _271
REMARK  116  A    between atoms: _271  and  _272
REMARK  117  A    between atoms: _281  and  _283
REMARK  118  A    between atoms: _283  and  _284
REMARK  119  A    between atoms: _286  and  _288
REMARK  120  A    between atoms: _288  and  _289
REMARK  121  A    between atoms: _288  and  _291
REMARK  122  A    between atoms: _291  and  _292
REMARK  123  A    between atoms: _295  and  _297
REMARK  124  A    between atoms: _297  and  _298
REMARK  125  A    between atoms: _297  and  _300
REMARK  126  A    between atoms: _300  and  _301
REMARK  127  A    between atoms: _303  and  _305
REMARK  128  A    between atoms: _305  and  _306
REMARK  129  A    between atoms: _305  and  _308
REMARK  130  A    between atoms: _308  and  _309
REMARK  131  A    between atoms: _313  and  MN_386
REMARK  132  A    between atoms: _314  and  _316
REMARK  133  A    between atoms: _316  and  _317
REMARK  134  A    between atoms: _320  and  _322
REMARK  135  A    between atoms: _322  and  _323
REMARK  136  A    between atoms: _322  and  _325
REMARK  137  A    between atoms: _325  and  _326
REMARK  138  A    between atoms: _331  and  _333
REMARK  139  A    between atoms: _333  and  _334
REMARK  140  A    between atoms: _333  and  _336
REMARK  141  A    between atoms: _336  and  _337
REMARK  142  A    between atoms: _337  and  _338
REMARK  143  A    between atoms: _340  and  _342
REMARK  144  A    between atoms: _342  and  _343
REMARK  145  A    between atoms: _342  and  _345
REMARK  146  A    between atoms: _345  and  _346
REMARK  147  A    between atoms: _346  and  _347
REMARK  148  A    between atoms: _347  and  _349
REMARK  149  A    between atoms: _349  and  MN_386
REMARK  150  A    between atoms: _350  and  _352
REMARK  151  A    between atoms: _352  and  _353
REMARK  152  A    between atoms: _352  and  _355
REMARK  153  A    between atoms: _355  and  _356
REMARK  154  A    between atoms: _358  and  _360
REMARK  155  A    between atoms: _360  and  _361
REMARK  156  A    between atoms: _360  and  _363
REMARK  157  A    between atoms: _363  and  _364
REMARK  158  A    between atoms: _367  and  _369
REMARK  159  A    between atoms: _369  and  _370
REMARK  160  A    between atoms: _369  and  _372
REMARK  161  A    between atoms: _372  and  _373
REMARK  162  A    between atoms: _373  and  _375
REMARK  163  A    between atoms: _375  and  MN_386
REMARK  164  A    between atoms: _376  and  _378
REMARK  165  A    between atoms: _378  and  _379
REMARK  166  A    between atoms: _378  and  _381
REMARK  167  A    between atoms: _381  and  _382
REMARK  168  A    between atoms: _382  and  _383
REMARK                            x       y       z     vdW  Elec       q    Type
REMARK                         _______ _______ _______ _____ _____    ______ ____
ROOT
ATOM      1  NE  ARG A   1      46.662 -19.166   0.879  0.00  0.00    -0.265 N 
ATOM      2  HE  ARG A   1      45.827 -19.146   1.499  0.00  0.00    +0.259 HD
ATOM      3  CZ  ARG A   1      46.548 -19.847  -0.271  0.00  0.00    +0.342 C 
ATOM      4  NH2 ARG A   1      45.377 -20.396  -0.596  0.00  0.00    -0.292 N 
ATOM      5 HH21 ARG A   1      44.561 -20.295   0.040  0.00  0.00    +0.255 HD
ATOM      6 HH22 ARG A   1      45.280 -20.926  -1.486  0.00  0.00    +0.255 HD
ATOM      7  NH1 ARG A   1      47.581 -20.015  -1.092  0.00  0.00    -0.292 N 
ATOM      8 HH11 ARG A   1      48.509 -19.613  -0.849  0.00  0.00    +0.255 HD
ATOM      9 HH12 ARG A   1      47.461 -20.548  -1.977  0.00  0.00    +0.255 HD
ENDROOT
BRANCH   1  10
ATOM     10  CD  ARG A   1      47.842 -18.453   1.340  0.00  0.00    +0.174 C 
BRANCH  10  11
ATOM     11  CG  ARG A   1      47.701 -16.926   1.208  0.00  0.00    +0.045 C 
BRANCH  11  12
ATOM     12  CB  ARG A   1      46.453 -16.392   1.911  0.00  0.00    +0.029 C 
BRANCH  12  13
ATOM     13  CA  ARG A   1      46.224 -14.872   1.806  0.00  0.00    +0.133 C 
BRANCH  13  14
ATOM     14  N   ARG A   1      47.166 -14.115   2.667  0.00  0.00    -0.239 NA
ATOM     15  H   ARG A   1      47.768 -14.646   3.329  0.00  0.00    +0.142 HD
ENDBRANCH  13  14
BRANCH  13  16
ATOM     16  C   ARG A   1      44.795 -14.610   2.254  0.00  0.00    +0.224 C 
ATOM     17  O   ARG A   1      44.437 -14.912   3.419  0.00  0.00    -0.287 OA
ENDBRANCH  13  16
ENDBRANCH  12  13
ENDBRANCH  11  12
ENDBRANCH  10  11
ENDBRANCH   1  10
TORSDOF 6
REMARK  Name = ../refined-set-2016/4umb/4umb_pocket.pdb
REMARK  168 active torsions:
REMARK  status: ('A' for Active; 'I' for Inactive)
REMARK    1  A    between atoms: _1  and  _3
REMARK    2  A    between atoms: _3  and  _4
REMARK    3  A    between atoms: _3  and  _6
REMARK    4  A    between atoms: _6  and  _7
REMARK    5  A    between atoms: _11  and  _12
REMARK    6  A    between atoms: _17  and  _19
REMARK    7  A    between atoms: _19  and  _20
REMARK    8  A    between atoms: _19  and  _22
REMARK    9  A    between atoms: _22  and  _23
REMARK   10  A    between atoms: _23  and  MN_386
REMARK   11  A    between atoms: _24  and  _26
REMARK   12  A    between atoms: _26  and  _27
REMARK   13  A    between atoms: _26  and  _29
REMARK   14  A    between atoms: _29  and  _30
REMARK   15  A    between atoms: _32  and  _34
REMARK   16  A    between atoms: _34  and  _35
REMARK   17  A    between atoms: _34  and  _37
REMARK   18  A    between atoms: _37  and  _38
REMARK   19  A    between atoms: _38  and  _39
REMARK   20  A    between atoms: _39  and  _40
REMARK   21  A    between atoms: _49  and  _51
REMARK   22  A    between atoms: _51  and  _52
REMARK   23  A    between atoms: _51  and  _54
REMARK   24  A    between atoms: _54  and  _55
REMARK   25  A    between atoms: _60  and  _61
REMARK   26  A    between atoms: _63  and  _65
REMARK   27  A    between atoms: _65  and  _66
REMARK   28  A    between atoms: _65  and  _68
REMARK   29  A    between atoms: _68  and  _69
REMARK   30  A    between atoms: _69  and  _70
REMARK   31  A    between atoms: _73  and  _75
REMARK   32  A    between atoms: _75  and  _76
REMARK   33  A    between atoms: _75  and  _78
REMARK   34  A    between atoms: _78  and  _79
REMARK   35  A    between atoms: _79  and  _80
REMARK   36  A    between atoms: _80  and  _81
REMARK   37  A    between atoms: _81  and  _82
REMARK   38  A    between atoms: _87  and  _88
REMARK   39  A    between atoms: _93  and  _95
REMARK   40  A    between atoms: _95  and  _96
REMARK   41  A    between atoms: _95  and  _98
REMARK   42  A    between atoms: _98  and  _99
REMARK   43  A    between atoms: _99  and  _100
REMARK   44  A    between atoms: _100  and  _101
REMARK   45  A    between atoms: _110  and  _112
REMARK   46  A    between atoms: _112  and  _113
REMARK   47  A    between atoms: _112  and  _115
REMARK   48  A    between atoms: _115  and  _116
REMARK   49  A    between atoms: _119  and  _121
REMARK   50  A    between atoms: _121  and  _122
REMARK   51  A    between atoms: _121  and  _124
REMARK   52  A    between atoms: _124  and  _125
REMARK   53  A    between atoms: _128  and  _130
REMARK   54  A    between atoms: _130  and  _131
REMARK   55  A    between atoms: _130  and  _133
REMARK   56  A    between atoms: _133  and  _134
REMARK   57  A    between atoms: _134  and  _135
REMARK   58  A    between atoms: _138  and  _140
REMARK   59  A    between atoms: _140  and  _141
REMARK   60  A    between atoms: _140  and  _143
REMARK   61  A    between atoms: _143  and  _144
REMARK   62  A    between atoms: _147  and  _149
REMARK   63  A    between atoms: _149  and  _150
REMARK   64  A    between atoms: _153  and  _155
REMARK   65  A    between atoms: _155  and  _156
REMARK   66  A    between atoms: _155  and  _158
REMARK   67  A    between atoms: _158  and  _159
REMARK   68  A    between atoms: _162  and  _164
REMARK   69  A    between atoms: _164  and  _165
REMARK   70  A    between atoms: _167  and  _169
REMARK   71  A    between atoms: _169  and  _170
REMARK   72  A    between atoms: _173  and  _175
REMARK   73  A    between atoms: _175  and  _176
REMARK   74  A    between atoms: _175  and  _178
REMARK   75  A    between atoms: _178  and  _179
REMARK   76  A    between atoms: _179  and  _180
REMARK   77  A    between atoms: _180  and  _181
REMARK   78  A    between atoms: _190  and  _192
REMARK   79  A    between atoms: _192  and  _193
REMARK   80  A    between atoms: _192  and  _195
REMARK   81  A    between atoms: _195  and  _196
REMARK   82  A    between atoms: _199  and  _201
REMARK   83  A    between atoms: _201  and  _202
REMARK   84  A    between atoms: _201  and  _204
REMARK   85  A    between atoms: _204  and  _205
REMARK   86  A    between atoms: _208  and  _210
REMARK   87  A    between atoms: _210  and  _211
REMARK   88  A    between atoms: _210  and  _213
REMARK   89  A    between atoms: _213  and  _214
REMARK   90  A    between atoms: _214  and  _215
REMARK   91  A    between atoms: _215  and  _216
REMARK   92  A    between atoms: _216  and  _217
REMARK   93  A    between atoms: _221  and  _223
REMARK   94  A    between atoms: _223  and  _224
REMARK   95  A    between atoms: _223  and  _226
REMARK   96  A    between atoms: _226  and  _227
REMARK   97  A    between atoms: _232  and  _234
REMARK   98  A    between atoms: _234  and  _235
REMARK   99  A    between atoms: _237  and  _239
REMARK  100  A    between atoms: _239  and  _240
REMARK  101  A    between atoms: _239  and  _242
REMARK  102  A    between atoms: _242  and  _243
REMARK  103  A    between atoms: _246  and  _248
REMARK  104  A    between atoms: _248  and  _249
REMARK  105  A    between atoms: _248  and  _251
REMARK  106  A    between atoms: _251  and  _252
REMARK  107  A    between atoms: _255  and  _257
REMARK  108  A    between atoms: _257  and  _258
REMARK  109  A    between atoms: _257  and  _260
REMARK  110  A    between atoms: _260  and  _261
REMARK  111  A    between atoms: _264  and  _266
REMARK  112  A    between atoms: _266  and  _267
REMARK  113  A    between atoms: _266  and  _269
REMARK  114  A    between atoms: _269  and  _270
REMARK  115  A    between atoms: _270  and  _271
REMARK  116  A    between atoms: _271  and  _272
REMARK  117  A    between atoms: _281  and  _283
REMARK  118  A    between atoms: _283  and  _284
REMARK  119  A    between atoms: _286  and  _288
REMARK  120  A    between atoms: _288  and  _289
REMARK  121  A    between atoms: _288  and  _291
REMARK  122  A    between atoms: _291  and  _292
REMARK  123  A    between atoms: _295  and  _297
REMARK  124  A    between atoms: _297  and  _298
REMARK  125  A    between atoms: _297  and  _300
REMARK  126  A    between atoms: _300  and  _301
REMARK  127  A    between atoms: _303  and  _305
REMARK  128  A    between atoms: _305  and  _306
REMARK  129  A    between atoms: _305  and  _308
REMARK  130  A    between atoms: _308  and  _309
REMARK  131  A    between atoms: _313  and  MN_386
REMARK  132  A    between atoms: _314  and  _316
REMARK  133  A    between atoms: _316  and  _317
REMARK  134  A    between atoms: _320  and  _322
REMARK  135  A    between atoms: _322  and  _323
REMARK  136  A    between atoms: _322  and  _325
REMARK  137  A    between atoms: _325  and  _326
REMARK  138  A    between atoms: _331  and  _333
REMARK  139  A    between atoms: _333  and  _334
REMARK  140  A    between atoms: _333  and  _336
REMARK  141  A    between atoms: _336  and  _337
REMARK  142  A    between atoms: _337  and  _338
REMARK  143  A    between atoms: _340  and  _342
REMARK  144  A    between atoms: _342  and  _343
REMARK  145  A    between atoms: _342  and  _345
REMARK  146  A    between atoms: _345  and  _346
REMARK  147  A    between atoms: _346  and  _347
REMARK  148  A    between atoms: _347  and  _349
REMARK  149  A    between atoms: _349  and  MN_386
REMARK  150  A    between atoms: _350  and  _352
REMARK  151  A    between atoms: _352  and  _353
REMARK  152  A    between atoms: _352  and  _355
REMARK  153  A    between atoms: _355  and  _356
REMARK  154  A    between atoms: _358  and  _360
REMARK  155  A    between atoms: _360  and  _361
REMARK  156  A    between atoms: _360  and  _363
REMARK  157  A    between atoms: _363  and  _364
REMARK  158  A    between atoms: _367  and  _369
REMARK  159  A    between atoms: _369  and  _370
REMARK  160  A    between atoms: _369  and  _372
REMARK  161  A    between atoms: _372  and  _373
REMARK  162  A    between atoms: _373  and  _375
REMARK  163  A    between atoms: _375  and  MN_386
REMARK  164  A    between atoms: _376  and  _378
REMARK  165  A    between atoms: _378  and  _379
REMARK  166  A    between atoms: _378  and  _381
REMARK  167  A    between atoms: _381  and  _382
REMARK  168  A    between atoms: _382  and  _383
REMARK                            x       y       z     vdW  Elec       q    Type
REMARK                         _______ _______ _______ _____ _____    ______ ____
ROOT
ATOM      1  CG  TYR A   1      43.232 -17.483  -1.724  0.00  0.00    -0.020 A 
ATOM      2  CD2 TYR A   1      44.241 -16.595  -1.326  0.00  0.00    -0.001 A 
ATOM      3  CE2 TYR A   1      45.482 -16.604  -1.959  0.00  0.00    +0.036 A 
ATOM      4  CZ  TYR A   1      45.717 -17.518  -3.002  0.00  0.00    +0.134 A 
ATOM      5  CE1 TYR A   1      44.758 -18.401  -3.392  0.00  0.00    +0.036 A 
ATOM      6  CD1 TYR A   1      43.520 -18.393  -2.749  0.00  0.00    -0.001 A 
ENDROOT
BRANCH   4   7
ATOM      7  OH  TYR A   1      46.919 -17.534  -3.627  0.00  0.00    -0.506 OA
ATOM      8  HH  TYR A   1      47.338 -18.423  -3.511  0.00  0.00    +0.292 HD
ENDBRANCH   4   7
BRANCH   1   9
ATOM      9  CB  TYR A   1      41.875 -17.517  -1.016  0.00  0.00    +0.051 C 
BRANCH   9  10
ATOM     10  CA  TYR A   1      41.200 -16.152  -0.826  0.00  0.00    +0.137 C 
BRANCH  10  11
ATOM     11  N   TYR A   1      41.788 -15.477   0.315  0.00  0.00    -0.239 NA
ATOM     12  H   TYR A   1      42.190 -16.051   1.083  0.00  0.00    +0.142 HD
ENDBRANCH  10  11
BRANCH  10  13
ATOM     13  C   TYR A   1      39.682 -16.345  -0.693  0.00  0.00    +0.224 C 
ATOM     14  O   TYR A   1      39.197 -17.005   0.244  0.00  0.00    -0.287 OA
ENDBRANCH  10  13
ENDBRANCH   9  10
ENDBRANCH   1   9
TORSDOF 5
REMARK  Name = ../refined-set-2016/4umb/4umb_pocket.pdb
REMARK  168 active torsions:
REMARK  status: ('A' for Active; 'I' for Inactive)
REMARK    1  A    between atoms: _1  and  _3
REMARK    2  A    between atoms: _3  and  _4
REMARK    3  A    between atoms: _3  and  _6
REMARK    4  A    between atoms: _6  and  _7
REMARK    5  A    between atoms: _11  and  _12
REMARK    6  A    between atoms: _17  and  _19
REMARK    7  A    between atoms: _19  and  _20
REMARK    8  A    between atoms: _19  and  _22
REMARK    9  A    between atoms: _22  and  _23
REMARK   10  A    between atoms: _23  and  MN_386
REMARK   11  A    between atoms: _24  and  _26
REMARK   12  A    between atoms: _26  and  _27
REMARK   13  A    between atoms: _26  and  _29
REMARK   14  A    between atoms: _29  and  _30
REMARK   15  A    between atoms: _32  and  _34
REMARK   16  A    between atoms: _34  and  _35
REMARK   17  A    between atoms: _34  and  _37
REMARK   18  A    between atoms: _37  and  _38
REMARK   19  A    between atoms: _38  and  _39
REMARK   20  A    between atoms: _39  and  _40
REMARK   21  A    between atoms: _49  and  _51
REMARK   22  A    between atoms: _51  and  _52
REMARK   23  A    between atoms: _51  and  _54
REMARK   24  A    between atoms: _54  and  _55
REMARK   25  A    between atoms: _60  and  _61
REMARK   26  A    between atoms: _63  and  _65
REMARK   27  A    between atoms: _65  and  _66
REMARK   28  A    between atoms: _65  and  _68
REMARK   29  A    between atoms: _68  and  _69
REMARK   30  A    between atoms: _69  and  _70
REMARK   31  A    between atoms: _73  and  _75
REMARK   32  A    between atoms: _75  and  _76
REMARK   33  A    between atoms: _75  and  _78
REMARK   34  A    between atoms: _78  and  _79
REMARK   35  A    between atoms: _79  and  _80
REMARK   36  A    between atoms: _80  and  _81
REMARK   37  A    between atoms: _81  and  _82
REMARK   38  A    between atoms: _87  and  _88
REMARK   39  A    between atoms: _93  and  _95
REMARK   40  A    between atoms: _95  and  _96
REMARK   41  A    between atoms: _95  and  _98
REMARK   42  A    between atoms: _98  and  _99
REMARK   43  A    between atoms: _99  and  _100
REMARK   44  A    between atoms: _100  and  _101
REMARK   45  A    between atoms: _110  and  _112
REMARK   46  A    between atoms: _112  and  _113
REMARK   47  A    between atoms: _112  and  _115
REMARK   48  A    between atoms: _115  and  _116
REMARK   49  A    between atoms: _119  and  _121
REMARK   50  A    between atoms: _121  and  _122
REMARK   51  A    between atoms: _121  and  _124
REMARK   52  A    between atoms: _124  and  _125
REMARK   53  A    between atoms: _128  and  _130
REMARK   54  A    between atoms: _130  and  _131
REMARK   55  A    between atoms: _130  and  _133
REMARK   56  A    between atoms: _133  and  _134
REMARK   57  A    between atoms: _134  and  _135
REMARK   58  A    between atoms: _138  and  _140
REMARK   59  A    between atoms: _140  and  _141
REMARK   60  A    between atoms: _140  and  _143
REMARK   61  A    between atoms: _143  and  _144
REMARK   62  A    between atoms: _147  and  _149
REMARK   63  A    between atoms: _149  and  _150
REMARK   64  A    between atoms: _153  and  _155
REMARK   65  A    between atoms: _155  and  _156
REMARK   66  A    between atoms: _155  and  _158
REMARK   67  A    between atoms: _158  and  _159
REMARK   68  A    between atoms: _162  and  _164
REMARK   69  A    between atoms: _164  and  _165
REMARK   70  A    between atoms: _167  and  _169
REMARK   71  A    between atoms: _169  and  _170
REMARK   72  A    between atoms: _173  and  _175
REMARK   73  A    between atoms: _175  and  _176
REMARK   74  A    between atoms: _175  and  _178
REMARK   75  A    between atoms: _178  and  _179
REMARK   76  A    between atoms: _179  and  _180
REMARK   77  A    between atoms: _180  and  _181
REMARK   78  A    between atoms: _190  and  _192
REMARK   79  A    between atoms: _192  and  _193
REMARK   80  A    between atoms: _192  and  _195
REMARK   81  A    between atoms: _195  and  _196
REMARK   82  A    between atoms: _199  and  _201
REMARK   83  A    between atoms: _201  and  _202
REMARK   84  A    between atoms: _201  and  _204
REMARK   85  A    between atoms: _204  and  _205
REMARK   86  A    between atoms: _208  and  _210
REMARK   87  A    between atoms: _210  and  _211
REMARK   88  A    between atoms: _210  and  _213
REMARK   89  A    between atoms: _213  and  _214
REMARK   90  A    between atoms: _214  and  _215
REMARK   91  A    between atoms: _215  and  _216
REMARK   92  A    between atoms: _216  and  _217
REMARK   93  A    between atoms: _221  and  _223
REMARK   94  A    between atoms: _223  and  _224
REMARK   95  A    between atoms: _223  and  _226
REMARK   96  A    between atoms: _226  and  _227
REMARK   97  A    between atoms: _232  and  _234
REMARK   98  A    between atoms: _234  and  _235
REMARK   99  A    between atoms: _237  and  _239
REMARK  100  A    between atoms: _239  and  _240
REMARK  101  A    between atoms: _239  and  _242
REMARK  102  A    between atoms: _242  and  _243
REMARK  103  A    between atoms: _246  and  _248
REMARK  104  A    between atoms: _248  and  _249
REMARK  105  A    between atoms: _248  and  _251
REMARK  106  A    between atoms: _251  and  _252
REMARK  107  A    between atoms: _255  and  _257
REMARK  108  A    between atoms: _257  and  _258
REMARK  109  A    between atoms: _257  and  _260
REMARK  110  A    between atoms: _260  and  _261
REMARK  111  A    between atoms: _264  and  _266
REMARK  112  A    between atoms: _266  and  _267
REMARK  113  A    between atoms: _266  and  _269
REMARK  114  A    between atoms: _269  and  _270
REMARK  115  A    between atoms: _270  and  _271
REMARK  116  A    between atoms: _271  and  _272
REMARK  117  A    between atoms: _281  and  _283
REMARK  118  A    between atoms: _283  and  _284
REMARK  119  A    between atoms: _286  and  _288
REMARK  120  A    between atoms: _288  and  _289
REMARK  121  A    between atoms: _288  and  _291
REMARK  122  A    between atoms: _291  and  _292
REMARK  123  A    between atoms: _295  and  _297
REMARK  124  A    between atoms: _297  and  _298
REMARK  125  A    between atoms: _297  and  _300
REMARK  126  A    between atoms: _300  and  _301
REMARK  127  A    between atoms: _303  and  _305
REMARK  128  A    between atoms: _305  and  _306
REMARK  129  A    between atoms: _305  and  _308
REMARK  130  A    between atoms: _308  and  _309
REMARK  131  A    between atoms: _313  and  MN_386
REMARK  132  A    between atoms: _314  and  _316
REMARK  133  A    between atoms: _316  and  _317
REMARK  134  A    between atoms: _320  and  _322
REMARK  135  A    between atoms: _322  and  _323
REMARK  136  A    between atoms: _322  and  _325
REMARK  137  A    between atoms: _325  and  _326
REMARK  138  A    between atoms: _331  and  _333
REMARK  139  A    between atoms: _333  and  _334
REMARK  140  A    between atoms: _333  and  _336
REMARK  141  A    between atoms: _336  and  _337
REMARK  142  A    between atoms: _337  and  _338
REMARK  143  A    between atoms: _340  and  _342
REMARK  144  A    between atoms: _342  and  _343
REMARK  145  A    between atoms: _342  and  _345
REMARK  146  A    between atoms: _345  and  _346
REMARK  147  A    between atoms: _346  and  _347
REMARK  148  A    between atoms: _347  and  _349
REMARK  149  A    between atoms: _349  and  MN_386
REMARK  150  A    between atoms: _350  and  _352
REMARK  151  A    between atoms: _352  and  _353
REMARK  152  A    between atoms: _352  and  _355
REMARK  153  A    between atoms: _355  and  _356
REMARK  154  A    between atoms: _358  and  _360
REMARK  155  A    between atoms: _360  and  _361
REMARK  156  A    between atoms: _360  and  _363
REMARK  157  A    between atoms: _363  and  _364
REMARK  158  A    between atoms: _367  and  _369
REMARK  159  A    between atoms: _369  and  _370
REMARK  160  A    between atoms: _369  and  _372
REMARK  161  A    between atoms: _372  and  _373
REMARK  162  A    between atoms: _373  and  _375
REMARK  163  A    between atoms: _375  and  MN_386
REMARK  164  A    between atoms: _376  and  _378
REMARK  165  A    between atoms: _378  and  _379
REMARK  166  A    between atoms: _378  and  _381
REMARK  167  A    between atoms: _381  and  _382
REMARK  168  A    between atoms: _382  and  _383
REMARK                            x       y       z     vdW  Elec       q    Type
REMARK                         _______ _______ _______ _____ _____    ______ ____
ROOT
ATOM      1  C   LYS A   2      37.918 -22.727  -5.827  0.00  0.00    +0.244 C 
ATOM      2  O   LYS A   2      36.746 -22.998  -6.065  0.00  0.00    -0.273 OA
ATOM      3  N   PRO A   3      38.923 -23.171  -6.588  0.00  0.00    -0.272 N 
ATOM      4  CD  PRO A   3      40.352 -22.786  -6.508  0.00  0.00    +0.094 C 
ATOM      5  CG  PRO A   3      40.979 -23.435  -7.731  0.00  0.00    +0.024 C 
ATOM      6  CB  PRO A   3      39.845 -23.806  -8.651  0.00  0.00    +0.031 C 
ATOM      7  CA  PRO A   3      38.667 -24.078  -7.696  0.00  0.00    +0.152 C 
ENDROOT
BRANCH   7   8
ATOM      8  C   PRO A   3      38.692 -25.491  -7.173  0.00  0.00    +0.241 C 
ATOM      9  O   PRO A   3      39.673 -25.898  -6.579  0.00  0.00    -0.273 OA
ATOM     10  N   ARG A   4      37.605 -26.220  -7.346  0.00  0.00    -0.297 N 
ATOM     11  H   ARG A   4      36.787 -25.808  -7.839  0.00  0.00    +0.150 HD
BRANCH  10  12
ATOM     12  CA  ARG A   4      37.531 -27.580  -6.863  0.00  0.00    +0.149 C 
BRANCH  12  13
ATOM     13  C   ARG A   4      37.926 -28.573  -7.951  0.00  0.00    +0.241 C 
ATOM     14  N   THR A   5      38.347 -29.742  -7.491  0.00  0.00    -0.296 N 
ATOM     15  H   THR A   5      38.417 -29.867  -6.461  0.00  0.00    +0.150 HD
ATOM     16  O   ARG A   4      37.829 -28.302  -9.150  0.00  0.00    -0.273 OA
BRANCH  14  17
ATOM     17  CA  THR A   5      38.715 -30.856  -8.339  0.00  0.00    +0.164 C 
BRANCH  17  18
ATOM     18  C   THR A   5      37.522 -31.343  -9.147  0.00  0.00    +0.229 C 
ATOM     19  O   THR A   5      37.648 -31.512 -10.362  0.00  0.00    -0.286 OA
ENDBRANCH  17  18
BRANCH  17  20
ATOM     20  CB  THR A   5      39.327 -31.983  -7.490  0.00  0.00    +0.136 C 
ATOM     21  CG2 THR A   5      39.573 -33.252  -8.324  0.00  0.00    +0.034 C 
BRANCH  20  22
ATOM     22  OG1 THR A   5      40.574 -31.500  -6.973  0.00  0.00    -0.382 OA
ATOM     23  HG1 THR A   5      40.995 -32.204  -6.420  0.00  0.00    +0.210 HD
ENDBRANCH  20  22
ENDBRANCH  17  20
ENDBRANCH  14  17
ENDBRANCH  12  13
BRANCH  12  24
ATOM     24  CB  ARG A   4      36.122 -27.899  -6.351  0.00  0.00    +0.033 C 
BRANCH  24  25
ATOM     25  CG  ARG A   4      35.523 -26.856  -5.411  0.00  0.00    +0.045 C 
BRANCH  25  26
ATOM     26  CD  ARG A   4      36.420 -26.490  -4.235  0.00  0.00    +0.174 C 
BRANCH  26  27
ATOM     27  NE  ARG A   4      36.750 -27.642  -3.398  0.00  0.00    -0.265 N 
ATOM     28  CZ  ARG A   4      36.492 -27.757  -2.081  0.00  0.00    +0.342 C 
ATOM     29  NH2 ARG A   4      35.883 -26.795  -1.377  0.00  0.00    -0.292 N 
ATOM     30 HH21 ARG A   4      35.704 -26.928  -0.361  0.00  0.00    +0.255 HD
ATOM     31 HH22 ARG A   4      35.589 -25.915  -1.846  0.00  0.00    +0.255 HD
ATOM     32  NH1 ARG A   4      36.854 -28.865  -1.452  0.00  0.00    -0.292 N 
ATOM     33 HH11 ARG A   4      36.663 -28.972  -0.435  0.00  0.00    +0.255 HD
ATOM     34 HH12 ARG A   4      37.329 -29.628  -1.975  0.00  0.00    +0.255 HD
ATOM     35  HE  ARG A   4      37.226 -28.443  -3.860  0.00  0.00    +0.259 HD
ENDBRANCH  26  27
ENDBRANCH  25  26
ENDBRANCH  24  25
ENDBRANCH  12  24
ENDBRANCH  10  12
ENDBRANCH   7   8
BRANCH   1  36
ATOM     36  CA  LYS A   2      38.297 -21.841  -4.644  0.00  0.00    +0.149 C 
BRANCH  36  38
ATOM     37  C   GLU A   1      38.179 -19.411  -4.769  0.00  0.00    +0.238 C 
ATOM     38  N   LYS A   2      37.567 -20.578  -4.666  0.00  0.00    -0.297 N 
ATOM     39  H   LYS A   2      36.529 -20.597  -4.598  0.00  0.00    +0.150 HD
ATOM     40  O   GLU A   1      39.387 -19.306  -4.897  0.00  0.00    -0.274 OA
BRANCH  37  41
ATOM     41  CA  GLU A   1      37.305 -18.164  -4.658  0.00  0.00    +0.145 C 
BRANCH  41  42
ATOM     42  N   GLU A   1      37.744 -17.328  -3.529  0.00  0.00    -0.238 NA
ATOM     43  H   GLU A   1      38.759 -17.120  -3.434  0.00  0.00    +0.142 HD
ENDBRANCH  41  42
BRANCH  41  44
ATOM     44  CB  GLU A   1      37.382 -17.342  -5.953  0.00  0.00    +0.038 C 
BRANCH  44  45
ATOM     45  CG  GLU A   1      36.513 -16.088  -5.927  0.00  0.00    +0.116 C 
BRANCH  45  46
ATOM     46  CD  GLU A   1      36.716 -15.151  -7.109  0.00  0.00    +0.365 C 
ATOM     47  OE2 GLU A   1      36.070 -14.087  -7.115  0.00  0.00    -0.246 OA
ATOM     48  OE1 GLU A   1      37.505 -15.455  -8.033  0.00  0.00    -0.246 OA
ENDBRANCH  45  46
ENDBRANCH  44  45
ENDBRANCH  41  44
ENDBRANCH  37  41
ENDBRANCH  36  38
BRANCH  36  49
ATOM     49  CB  LYS A   2      38.021 -22.590  -3.365  0.00  0.00    +0.029 C 
BRANCH  49  50
ATOM     50  CG  LYS A   2      38.296 -21.803  -2.097  0.00  0.00    +0.000 C 
BRANCH  50  51
ATOM     51  CD  LYS A   2      39.706 -21.220  -2.035  0.00  0.00    -0.024 C 
BRANCH  51  52
ATOM     52  CE  LYS A   2      40.760 -22.300  -1.973  0.00  0.00    -0.086 C 
BRANCH  52  53
ATOM     53  NZ  LYS A   2      42.141 -21.720  -2.001  0.00  0.00    +0.380 N 
ATOM     54  HZ1 LYS A   2      42.267 -21.088  -1.184  0.00  0.00    -0.089 HD
ATOM     55  HZ2 LYS A   2      42.840 -22.489  -1.957  0.00  0.00    -0.089 HD
ATOM     56  HZ3 LYS A   2      42.272 -21.181  -2.881  0.00  0.00    -0.089 HD
ENDBRANCH  52  53
ENDBRANCH  51  52
ENDBRANCH  50  51
ENDBRANCH  49  50
ENDBRANCH  36  49
ENDBRANCH   1  36
TORSDOF 23
REMARK  Name = ../refined-set-2016/4umb/4umb_pocket.pdb
REMARK  168 active torsions:
REMARK  status: ('A' for Active; 'I' for Inactive)
REMARK    1  A    between atoms: _1  and  _3
REMARK    2  A    between atoms: _3  and  _4
REMARK    3  A    between atoms: _3  and  _6
REMARK    4  A    between atoms: _6  and  _7
REMARK    5  A    between atoms: _11  and  _12
REMARK    6  A    between atoms: _17  and  _19
REMARK    7  A    between atoms: _19  and  _20
REMARK    8  A    between atoms: _19  and  _22
REMARK    9  A    between atoms: _22  and  _23
REMARK   10  A    between atoms: _23  and  MN_386
REMARK   11  A    between atoms: _24  and  _26
REMARK   12  A    between atoms: _26  and  _27
REMARK   13  A    between atoms: _26  and  _29
REMARK   14  A    between atoms: _29  and  _30
REMARK   15  A    between atoms: _32  and  _34
REMARK   16  A    between atoms: _34  and  _35
REMARK   17  A    between atoms: _34  and  _37
REMARK   18  A    between atoms: _37  and  _38
REMARK   19  A    between atoms: _38  and  _39
REMARK   20  A    between atoms: _39  and  _40
REMARK   21  A    between atoms: _49  and  _51
REMARK   22  A    between atoms: _51  and  _52
REMARK   23  A    between atoms: _51  and  _54
REMARK   24  A    between atoms: _54  and  _55
REMARK   25  A    between atoms: _60  and  _61
REMARK   26  A    between atoms: _63  and  _65
REMARK   27  A    between atoms: _65  and  _66
REMARK   28  A    between atoms: _65  and  _68
REMARK   29  A    between atoms: _68  and  _69
REMARK   30  A    between atoms: _69  and  _70
REMARK   31  A    between atoms: _73  and  _75
REMARK   32  A    between atoms: _75  and  _76
REMARK   33  A    between atoms: _75  and  _78
REMARK   34  A    between atoms: _78  and  _79
REMARK   35  A    between atoms: _79  and  _80
REMARK   36  A    between atoms: _80  and  _81
REMARK   37  A    between atoms: _81  and  _82
REMARK   38  A    between atoms: _87  and  _88
REMARK   39  A    between atoms: _93  and  _95
REMARK   40  A    between atoms: _95  and  _96
REMARK   41  A    between atoms: _95  and  _98
REMARK   42  A    between atoms: _98  and  _99
REMARK   43  A    between atoms: _99  and  _100
REMARK   44  A    between atoms: _100  and  _101
REMARK   45  A    between atoms: _110  and  _112
REMARK   46  A    between atoms: _112  and  _113
REMARK   47  A    between atoms: _112  and  _115
REMARK   48  A    between atoms: _115  and  _116
REMARK   49  A    between atoms: _119  and  _121
REMARK   50  A    between atoms: _121  and  _122
REMARK   51  A    between atoms: _121  and  _124
REMARK   52  A    between atoms: _124  and  _125
REMARK   53  A    between atoms: _128  and  _130
REMARK   54  A    between atoms: _130  and  _131
REMARK   55  A    between atoms: _130  and  _133
REMARK   56  A    between atoms: _133  and  _134
REMARK   57  A    between atoms: _134  and  _135
REMARK   58  A    between atoms: _138  and  _140
REMARK   59  A    between atoms: _140  and  _141
REMARK   60  A    between atoms: _140  and  _143
REMARK   61  A    between atoms: _143  and  _144
REMARK   62  A    between atoms: _147  and  _149
REMARK   63  A    between atoms: _149  and  _150
REMARK   64  A    between atoms: _153  and  _155
REMARK   65  A    between atoms: _155  and  _156
REMARK   66  A    between atoms: _155  and  _158
REMARK   67  A    between atoms: _158  and  _159
REMARK   68  A    between atoms: _162  and  _164
REMARK   69  A    between atoms: _164  and  _165
REMARK   70  A    between atoms: _167  and  _169
REMARK   71  A    between atoms: _169  and  _170
REMARK   72  A    between atoms: _173  and  _175
REMARK   73  A    between atoms: _175  and  _176
REMARK   74  A    between atoms: _175  and  _178
REMARK   75  A    between atoms: _178  and  _179
REMARK   76  A    between atoms: _179  and  _180
REMARK   77  A    between atoms: _180  and  _181
REMARK   78  A    between atoms: _190  and  _192
REMARK   79  A    between atoms: _192  and  _193
REMARK   80  A    between atoms: _192  and  _195
REMARK   81  A    between atoms: _195  and  _196
REMARK   82  A    between atoms: _199  and  _201
REMARK   83  A    between atoms: _201  and  _202
REMARK   84  A    between atoms: _201  and  _204
REMARK   85  A    between atoms: _204  and  _205
REMARK   86  A    between atoms: _208  and  _210
REMARK   87  A    between atoms: _210  and  _211
REMARK   88  A    between atoms: _210  and  _213
REMARK   89  A    between atoms: _213  and  _214
REMARK   90  A    between atoms: _214  and  _215
REMARK   91  A    between atoms: _215  and  _216
REMARK   92  A    between atoms: _216  and  _217
REMARK   93  A    between atoms: _221  and  _223
REMARK   94  A    between atoms: _223  and  _224
REMARK   95  A    between atoms: _223  and  _226
REMARK   96  A    between atoms: _226  and  _227
REMARK   97  A    between atoms: _232  and  _234
REMARK   98  A    between atoms: _234  and  _235
REMARK   99  A    between atoms: _237  and  _239
REMARK  100  A    between atoms: _239  and  _240
REMARK  101  A    between atoms: _239  and  _242
REMARK  102  A    between atoms: _242  and  _243
REMARK  103  A    between atoms: _246  and  _248
REMARK  104  A    between atoms: _248  and  _249
REMARK  105  A    between atoms: _248  and  _251
REMARK  106  A    between atoms: _251  and  _252
REMARK  107  A    between atoms: _255  and  _257
REMARK  108  A    between atoms: _257  and  _258
REMARK  109  A    between atoms: _257  and  _260
REMARK  110  A    between atoms: _260  and  _261
REMARK  111  A    between atoms: _264  and  _266
REMARK  112  A    between atoms: _266  and  _267
REMARK  113  A    between atoms: _266  and  _269
REMARK  114  A    between atoms: _269  and  _270
REMARK  115  A    between atoms: _270  and  _271
REMARK  116  A    between atoms: _271  and  _272
REMARK  117  A    between atoms: _281  and  _283
REMARK  118  A    between atoms: _283  and  _284
REMARK  119  A    between atoms: _286  and  _288
REMARK  120  A    between atoms: _288  and  _289
REMARK  121  A    between atoms: _288  and  _291
REMARK  122  A    between atoms: _291  and  _292
REMARK  123  A    between atoms: _295  and  _297
REMARK  124  A    between atoms: _297  and  _298
REMARK  125  A    between atoms: _297  and  _300
REMARK  126  A    between atoms: _300  and  _301
REMARK  127  A    between atoms: _303  and  _305
REMARK  128  A    between atoms: _305  and  _306
REMARK  129  A    between atoms: _305  and  _308
REMARK  130  A    between atoms: _308  and  _309
REMARK  131  A    between atoms: _313  and  MN_386
REMARK  132  A    between atoms: _314  and  _316
REMARK  133  A    between atoms: _316  and  _317
REMARK  134  A    between atoms: _320  and  _322
REMARK  135  A    between atoms: _322  and  _323
REMARK  136  A    between atoms: _322  and  _325
REMARK  137  A    between atoms: _325  and  _326
REMARK  138  A    between atoms: _331  and  _333
REMARK  139  A    between atoms: _333  and  _334
REMARK  140  A    between atoms: _333  and  _336
REMARK  141  A    between atoms: _336  and  _337
REMARK  142  A    between atoms: _337  and  _338
REMARK  143  A    between atoms: _340  and  _342
REMARK  144  A    between atoms: _342  and  _343
REMARK  145  A    between atoms: _342  and  _345
REMARK  146  A    between atoms: _345  and  _346
REMARK  147  A    between atoms: _346  and  _347
REMARK  148  A    between atoms: _347  and  _349
REMARK  149  A    between atoms: _349  and  MN_386
REMARK  150  A    between atoms: _350  and  _352
REMARK  151  A    between atoms: _352  and  _353
REMARK  152  A    between atoms: _352  and  _355
REMARK  153  A    between atoms: _355  and  _356
REMARK  154  A    between atoms: _358  and  _360
REMARK  155  A    between atoms: _360  and  _361
REMARK  156  A    between atoms: _360  and  _363
REMARK  157  A    between atoms: _363  and  _364
REMARK  158  A    between atoms: _367  and  _369
REMARK  159  A    between atoms: _369  and  _370
REMARK  160  A    between atoms: _369  and  _372
REMARK  161  A    between atoms: _372  and  _373
REMARK  162  A    between atoms: _373  and  _375
REMARK  163  A    between atoms: _375  and  MN_386
REMARK  164  A    between atoms: _376  and  _378
REMARK  165  A    between atoms: _378  and  _379
REMARK  166  A    between atoms: _378  and  _381
REMARK  167  A    between atoms: _381  and  _382
REMARK  168  A    between atoms: _382  and  _383
REMARK                            x       y       z     vdW  Elec       q    Type
REMARK                         _______ _______ _______ _____ _____    ______ ____
ROOT
ATOM      1  C   THR A   1      43.925 -14.346  -4.880  0.00  0.00    +0.241 C 
ATOM      2  N   GLU A   2      43.311 -15.506  -5.096  0.00  0.00    -0.298 N 
ATOM      3  H   GLU A   2      42.865 -16.009  -4.303  0.00  0.00    +0.150 HD
ATOM      4  O   THR A   1      44.687 -13.823  -5.713  0.00  0.00    -0.274 OA
ENDROOT
BRANCH   1   5
ATOM      5  CA  THR A   1      43.654 -13.664  -3.542  0.00  0.00    +0.172 C 
BRANCH   5   6
ATOM      6  N   THR A   1      44.690 -12.685  -3.253  0.00  0.00    -0.236 NA
ATOM      7  H   THR A   1      45.231 -12.272  -4.039  0.00  0.00    +0.142 HD
ENDBRANCH   5   6
BRANCH   5   8
ATOM      8  CB  THR A   1      42.262 -12.998  -3.546  0.00  0.00    +0.135 C 
ATOM      9  CG2 THR A   1      42.056 -12.128  -4.762  0.00  0.00    +0.034 C 
BRANCH   8  10
ATOM     10  OG1 THR A   1      41.233 -13.992  -3.522  0.00  0.00    -0.383 OA
ATOM     11  HG1 THR A   1      40.348 -13.549  -3.525  0.00  0.00    +0.210 HD
ENDBRANCH   8  10
ENDBRANCH   5   8
ENDBRANCH   1   5
BRANCH   2  12
ATOM     12  CA  GLU A   2      43.259 -16.081  -6.446  0.00  0.00    +0.137 C 
BRANCH  12  13
ATOM     13  C   GLU A   2      42.109 -15.424  -7.157  0.00  0.00    +0.227 C 
ATOM     14  O   GLU A   2      40.968 -15.400  -6.668  0.00  0.00    -0.286 OA
ENDBRANCH  12  13
BRANCH  12  15
ATOM     15  CB  GLU A   2      43.075 -17.621  -6.461  0.00  0.00    +0.039 C 
BRANCH  15  16
ATOM     16  CG  GLU A   2      42.771 -18.158  -7.873  0.00  0.00    +0.116 C 
BRANCH  16  17
ATOM     17  CD  GLU A   2      42.684 -19.669  -7.997  0.00  0.00    +0.365 C 
ATOM     18  OE2 GLU A   2      43.073 -20.387  -7.034  0.00  0.00    -0.246 OA
ATOM     19  OE1 GLU A   2      42.226 -20.122  -9.063  0.00  0.00    -0.246 OA
ENDBRANCH  16  17
ENDBRANCH  15  16
ENDBRANCH  12  15
ENDBRANCH   2  12
TORSDOF 9
REMARK  Name = ../refined-set-2016/4umb/4umb_pocket.pdb
REMARK  168 active torsions:
REMARK  status: ('A' for Active; 'I' for Inactive)
REMARK    1  A    between atoms: _1  and  _3
REMARK    2  A    between atoms: _3  and  _4
REMARK    3  A    between atoms: _3  and  _6
REMARK    4  A    between atoms: _6  and  _7
REMARK    5  A    between atoms: _11  and  _12
REMARK    6  A    between atoms: _17  and  _19
REMARK    7  A    between atoms: _19  and  _20
REMARK    8  A    between atoms: _19  and  _22
REMARK    9  A    between atoms: _22  and  _23
REMARK   10  A    between atoms: _23  and  MN_386
REMARK   11  A    between atoms: _24  and  _26
REMARK   12  A    between atoms: _26  and  _27
REMARK   13  A    between atoms: _26  and  _29
REMARK   14  A    between atoms: _29  and  _30
REMARK   15  A    between atoms: _32  and  _34
REMARK   16  A    between atoms: _34  and  _35
REMARK   17  A    between atoms: _34  and  _37
REMARK   18  A    between atoms: _37  and  _38
REMARK   19  A    between atoms: _38  and  _39
REMARK   20  A    between atoms: _39  and  _40
REMARK   21  A    between atoms: _49  and  _51
REMARK   22  A    between atoms: _51  and  _52
REMARK   23  A    between atoms: _51  and  _54
REMARK   24  A    between atoms: _54  and  _55
REMARK   25  A    between atoms: _60  and  _61
REMARK   26  A    between atoms: _63  and  _65
REMARK   27  A    between atoms: _65  and  _66
REMARK   28  A    between atoms: _65  and  _68
REMARK   29  A    between atoms: _68  and  _69
REMARK   30  A    between atoms: _69  and  _70
REMARK   31  A    between atoms: _73  and  _75
REMARK   32  A    between atoms: _75  and  _76
REMARK   33  A    between atoms: _75  and  _78
REMARK   34  A    between atoms: _78  and  _79
REMARK   35  A    between atoms: _79  and  _80
REMARK   36  A    between atoms: _80  and  _81
REMARK   37  A    between atoms: _81  and  _82
REMARK   38  A    between atoms: _87  and  _88
REMARK   39  A    between atoms: _93  and  _95
REMARK   40  A    between atoms: _95  and  _96
REMARK   41  A    between atoms: _95  and  _98
REMARK   42  A    between atoms: _98  and  _99
REMARK   43  A    between atoms: _99  and  _100
REMARK   44  A    between atoms: _100  and  _101
REMARK   45  A    between atoms: _110  and  _112
REMARK   46  A    between atoms: _112  and  _113
REMARK   47  A    between atoms: _112  and  _115
REMARK   48  A    between atoms: _115  and  _116
REMARK   49  A    between atoms: _119  and  _121
REMARK   50  A    between atoms: _121  and  _122
REMARK   51  A    between atoms: _121  and  _124
REMARK   52  A    between atoms: _124  and  _125
REMARK   53  A    between atoms: _128  and  _130
REMARK   54  A    between atoms: _130  and  _131
REMARK   55  A    between atoms: _130  and  _133
REMARK   56  A    between atoms: _133  and  _134
REMARK   57  A    between atoms: _134  and  _135
REMARK   58  A    between atoms: _138  and  _140
REMARK   59  A    between atoms: _140  and  _141
REMARK   60  A    between atoms: _140  and  _143
REMARK   61  A    between atoms: _143  and  _144
REMARK   62  A    between atoms: _147  and  _149
REMARK   63  A    between atoms: _149  and  _150
REMARK   64  A    between atoms: _153  and  _155
REMARK   65  A    between atoms: _155  and  _156
REMARK   66  A    between atoms: _155  and  _158
REMARK   67  A    between atoms: _158  and  _159
REMARK   68  A    between atoms: _162  and  _164
REMARK   69  A    between atoms: _164  and  _165
REMARK   70  A    between atoms: _167  and  _169
REMARK   71  A    between atoms: _169  and  _170
REMARK   72  A    between atoms: _173  and  _175
REMARK   73  A    between atoms: _175  and  _176
REMARK   74  A    between atoms: _175  and  _178
REMARK   75  A    between atoms: _178  and  _179
REMARK   76  A    between atoms: _179  and  _180
REMARK   77  A    between atoms: _180  and  _181
REMARK   78  A    between atoms: _190  and  _192
REMARK   79  A    between atoms: _192  and  _193
REMARK   80  A    between atoms: _192  and  _195
REMARK   81  A    between atoms: _195  and  _196
REMARK   82  A    between atoms: _199  and  _201
REMARK   83  A    between atoms: _201  and  _202
REMARK   84  A    between atoms: _201  and  _204
REMARK   85  A    between atoms: _204  and  _205
REMARK   86  A    between atoms: _208  and  _210
REMARK   87  A    between atoms: _210  and  _211
REMARK   88  A    between atoms: _210  and  _213
REMARK   89  A    between atoms: _213  and  _214
REMARK   90  A    between atoms: _214  and  _215
REMARK   91  A    between atoms: _215  and  _216
REMARK   92  A    between atoms: _216  and  _217
REMARK   93  A    between atoms: _221  and  _223
REMARK   94  A    between atoms: _223  and  _224
REMARK   95  A    between atoms: _223  and  _226
REMARK   96  A    between atoms: _226  and  _227
REMARK   97  A    between atoms: _232  and  _234
REMARK   98  A    between atoms: _234  and  _235
REMARK   99  A    between atoms: _237  and  _239
REMARK  100  A    between atoms: _239  and  _240
REMARK  101  A    between atoms: _239  and  _242
REMARK  102  A    between atoms: _242  and  _243
REMARK  103  A    between atoms: _246  and  _248
REMARK  104  A    between atoms: _248  and  _249
REMARK  105  A    between atoms: _248  and  _251
REMARK  106  A    between atoms: _251  and  _252
REMARK  107  A    between atoms: _255  and  _257
REMARK  108  A    between atoms: _257  and  _258
REMARK  109  A    between atoms: _257  and  _260
REMARK  110  A    between atoms: _260  and  _261
REMARK  111  A    between atoms: _264  and  _266
REMARK  112  A    between atoms: _266  and  _267
REMARK  113  A    between atoms: _266  and  _269
REMARK  114  A    between atoms: _269  and  _270
REMARK  115  A    between atoms: _270  and  _271
REMARK  116  A    between atoms: _271  and  _272
REMARK  117  A    between atoms: _281  and  _283
REMARK  118  A    between atoms: _283  and  _284
REMARK  119  A    between atoms: _286  and  _288
REMARK  120  A    between atoms: _288  and  _289
REMARK  121  A    between atoms: _288  and  _291
REMARK  122  A    between atoms: _291  and  _292
REMARK  123  A    between atoms: _295  and  _297
REMARK  124  A    between atoms: _297  and  _298
REMARK  125  A    between atoms: _297  and  _300
REMARK  126  A    between atoms: _300  and  _301
REMARK  127  A    between atoms: _303  and  _305
REMARK  128  A    between atoms: _305  and  _306
REMARK  129  A    between atoms: _305  and  _308
REMARK  130  A    between atoms: _308  and  _309
REMARK  131  A    between atoms: _313  and  MN_386
REMARK  132  A    between atoms: _314  and  _316
REMARK  133  A    between atoms: _316  and  _317
REMARK  134  A    between atoms: _320  and  _322
REMARK  135  A    between atoms: _322  and  _323
REMARK  136  A    between atoms: _322  and  _325
REMARK  137  A    between atoms: _325  and  _326
REMARK  138  A    between atoms: _331  and  _333
REMARK  139  A    between atoms: _333  and  _334
REMARK  140  A    between atoms: _333  and  _336
REMARK  141  A    between atoms: _336  and  _337
REMARK  142  A    between atoms: _337  and  _338
REMARK  143  A    between atoms: _340  and  _342
REMARK  144  A    between atoms: _342  and  _343
REMARK  145  A    between atoms: _342  and  _345
REMARK  146  A    between atoms: _345  and  _346
REMARK  147  A    between atoms: _346  and  _347
REMARK  148  A    between atoms: _347  and  _349
REMARK  149  A    between atoms: _349  and  MN_386
REMARK  150  A    between atoms: _350  and  _352
REMARK  151  A    between atoms: _352  and  _353
REMARK  152  A    between atoms: _352  and  _355
REMARK  153  A    between atoms: _355  and  _356
REMARK  154  A    between atoms: _358  and  _360
REMARK  155  A    between atoms: _360  and  _361
REMARK  156  A    between atoms: _360  and  _363
REMARK  157  A    between atoms: _363  and  _364
REMARK  158  A    between atoms: _367  and  _369
REMARK  159  A    between atoms: _369  and  _370
REMARK  160  A    between atoms: _369  and  _372
REMARK  161  A    between atoms: _372  and  _373
REMARK  162  A    between atoms: _373  and  _375
REMARK  163  A    between atoms: _375  and  MN_386
REMARK  164  A    between atoms: _376  and  _378
REMARK  165  A    between atoms: _378  and  _379
REMARK  166  A    between atoms: _378  and  _381
REMARK  167  A    between atoms: _381  and  _382
REMARK  168  A    between atoms: _382  and  _383
REMARK                            x       y       z     vdW  Elec       q    Type
REMARK                         _______ _______ _______ _____ _____    ______ ____
ROOT
ATOM      1  CA  LEU A   1      39.180 -17.328 -10.495  0.00  0.00    +0.133 C 
ENDROOT
BRANCH   1   2
ATOM      2  N   LEU A   1      39.745 -16.185  -9.794  0.00  0.00    -0.239 NA
ATOM      3  H   LEU A   1      39.220 -15.789  -8.989  0.00  0.00    +0.142 HD
ENDBRANCH   1   2
BRANCH   1   4
ATOM      4  C   LEU A   1      37.995 -16.966 -11.375  0.00  0.00    +0.224 C 
ATOM      5  O   LEU A   1      37.951 -17.319 -12.545  0.00  0.00    -0.287 OA
ENDBRANCH   1   4
BRANCH   1   6
ATOM      6  CB  LEU A   1      38.736 -18.367  -9.467  0.00  0.00    +0.025 C 
BRANCH   6   7
ATOM      7  CG  LEU A   1      38.030 -19.609 -10.009  0.00  0.00    +0.002 C 
ATOM      8  CD2 LEU A   1      37.748 -20.590  -8.895  0.00  0.00    +0.000 C 
ATOM      9  CD1 LEU A   1      38.856 -20.273 -11.086  0.00  0.00    +0.000 C 
ENDBRANCH   6   7
ENDBRANCH   1   6
TORSDOF 4
REMARK  Name = ../refined-set-2016/4umb/4umb_pocket.pdb
REMARK  168 active torsions:
REMARK  status: ('A' for Active; 'I' for Inactive)
REMARK    1  A    between atoms: _1  and  _3
REMARK    2  A    between atoms: _3  and  _4
REMARK    3  A    between atoms: _3  and  _6
REMARK    4  A    between atoms: _6  and  _7
REMARK    5  A    between atoms: _11  and  _12
REMARK    6  A    between atoms: _17  and  _19
REMARK    7  A    between atoms: _19  and  _20
REMARK    8  A    between atoms: _19  and  _22
REMARK    9  A    between atoms: _22  and  _23
REMARK   10  A    between atoms: _23  and  MN_386
REMARK   11  A    between atoms: _24  and  _26
REMARK   12  A    between atoms: _26  and  _27
REMARK   13  A    between atoms: _26  and  _29
REMARK   14  A    between atoms: _29  and  _30
REMARK   15  A    between atoms: _32  and  _34
REMARK   16  A    between atoms: _34  and  _35
REMARK   17  A    between atoms: _34  and  _37
REMARK   18  A    between atoms: _37  and  _38
REMARK   19  A    between atoms: _38  and  _39
REMARK   20  A    between atoms: _39  and  _40
REMARK   21  A    between atoms: _49  and  _51
REMARK   22  A    between atoms: _51  and  _52
REMARK   23  A    between atoms: _51  and  _54
REMARK   24  A    between atoms: _54  and  _55
REMARK   25  A    between atoms: _60  and  _61
REMARK   26  A    between atoms: _63  and  _65
REMARK   27  A    between atoms: _65  and  _66
REMARK   28  A    between atoms: _65  and  _68
REMARK   29  A    between atoms: _68  and  _69
REMARK   30  A    between atoms: _69  and  _70
REMARK   31  A    between atoms: _73  and  _75
REMARK   32  A    between atoms: _75  and  _76
REMARK   33  A    between atoms: _75  and  _78
REMARK   34  A    between atoms: _78  and  _79
REMARK   35  A    between atoms: _79  and  _80
REMARK   36  A    between atoms: _80  and  _81
REMARK   37  A    between atoms: _81  and  _82
REMARK   38  A    between atoms: _87  and  _88
REMARK   39  A    between atoms: _93  and  _95
REMARK   40  A    between atoms: _95  and  _96
REMARK   41  A    between atoms: _95  and  _98
REMARK   42  A    between atoms: _98  and  _99
REMARK   43  A    between atoms: _99  and  _100
REMARK   44  A    between atoms: _100  and  _101
REMARK   45  A    between atoms: _110  and  _112
REMARK   46  A    between atoms: _112  and  _113
REMARK   47  A    between atoms: _112  and  _115
REMARK   48  A    between atoms: _115  and  _116
REMARK   49  A    between atoms: _119  and  _121
REMARK   50  A    between atoms: _121  and  _122
REMARK   51  A    between atoms: _121  and  _124
REMARK   52  A    between atoms: _124  and  _125
REMARK   53  A    between atoms: _128  and  _130
REMARK   54  A    between atoms: _130  and  _131
REMARK   55  A    between atoms: _130  and  _133
REMARK   56  A    between atoms: _133  and  _134
REMARK   57  A    between atoms: _134  and  _135
REMARK   58  A    between atoms: _138  and  _140
REMARK   59  A    between atoms: _140  and  _141
REMARK   60  A    between atoms: _140  and  _143
REMARK   61  A    between atoms: _143  and  _144
REMARK   62  A    between atoms: _147  and  _149
REMARK   63  A    between atoms: _149  and  _150
REMARK   64  A    between atoms: _153  and  _155
REMARK   65  A    between atoms: _155  and  _156
REMARK   66  A    between atoms: _155  and  _158
REMARK   67  A    between atoms: _158  and  _159
REMARK   68  A    between atoms: _162  and  _164
REMARK   69  A    between atoms: _164  and  _165
REMARK   70  A    between atoms: _167  and  _169
REMARK   71  A    between atoms: _169  and  _170
REMARK   72  A    between atoms: _173  and  _175
REMARK   73  A    between atoms: _175  and  _176
REMARK   74  A    between atoms: _175  and  _178
REMARK   75  A    between atoms: _178  and  _179
REMARK   76  A    between atoms: _179  and  _180
REMARK   77  A    between atoms: _180  and  _181
REMARK   78  A    between atoms: _190  and  _192
REMARK   79  A    between atoms: _192  and  _193
REMARK   80  A    between atoms: _192  and  _195
REMARK   81  A    between atoms: _195  and  _196
REMARK   82  A    between atoms: _199  and  _201
REMARK   83  A    between atoms: _201  and  _202
REMARK   84  A    between atoms: _201  and  _204
REMARK   85  A    between atoms: _204  and  _205
REMARK   86  A    between atoms: _208  and  _210
REMARK   87  A    between atoms: _210  and  _211
REMARK   88  A    between atoms: _210  and  _213
REMARK   89  A    between atoms: _213  and  _214
REMARK   90  A    between atoms: _214  and  _215
REMARK   91  A    between atoms: _215  and  _216
REMARK   92  A    between atoms: _216  and  _217
REMARK   93  A    between atoms: _221  and  _223
REMARK   94  A    between atoms: _223  and  _224
REMARK   95  A    between atoms: _223  and  _226
REMARK   96  A    between atoms: _226  and  _227
REMARK   97  A    between atoms: _232  and  _234
REMARK   98  A    between atoms: _234  and  _235
REMARK   99  A    between atoms: _237  and  _239
REMARK  100  A    between atoms: _239  and  _240
REMARK  101  A    between atoms: _239  and  _242
REMARK  102  A    between atoms: _242  and  _243
REMARK  103  A    between atoms: _246  and  _248
REMARK  104  A    between atoms: _248  and  _249
REMARK  105  A    between atoms: _248  and  _251
REMARK  106  A    between atoms: _251  and  _252
REMARK  107  A    between atoms: _255  and  _257
REMARK  108  A    between atoms: _257  and  _258
REMARK  109  A    between atoms: _257  and  _260
REMARK  110  A    between atoms: _260  and  _261
REMARK  111  A    between atoms: _264  and  _266
REMARK  112  A    between atoms: _266  and  _267
REMARK  113  A    between atoms: _266  and  _269
REMARK  114  A    between atoms: _269  and  _270
REMARK  115  A    between atoms: _270  and  _271
REMARK  116  A    between atoms: _271  and  _272
REMARK  117  A    between atoms: _281  and  _283
REMARK  118  A    between atoms: _283  and  _284
REMARK  119  A    between atoms: _286  and  _288
REMARK  120  A    between atoms: _288  and  _289
REMARK  121  A    between atoms: _288  and  _291
REMARK  122  A    between atoms: _291  and  _292
REMARK  123  A    between atoms: _295  and  _297
REMARK  124  A    between atoms: _297  and  _298
REMARK  125  A    between atoms: _297  and  _300
REMARK  126  A    between atoms: _300  and  _301
REMARK  127  A    between atoms: _303  and  _305
REMARK  128  A    between atoms: _305  and  _306
REMARK  129  A    between atoms: _305  and  _308
REMARK  130  A    between atoms: _308  and  _309
REMARK  131  A    between atoms: _313  and  MN_386
REMARK  132  A    between atoms: _314  and  _316
REMARK  133  A    between atoms: _316  and  _317
REMARK  134  A    between atoms: _320  and  _322
REMARK  135  A    between atoms: _322  and  _323
REMARK  136  A    between atoms: _322  and  _325
REMARK  137  A    between atoms: _325  and  _326
REMARK  138  A    between atoms: _331  and  _333
REMARK  139  A    between atoms: _333  and  _334
REMARK  140  A    between atoms: _333  and  _336
REMARK  141  A    between atoms: _336  and  _337
REMARK  142  A    between atoms: _337  and  _338
REMARK  143  A    between atoms: _340  and  _342
REMARK  144  A    between atoms: _342  and  _343
REMARK  145  A    between atoms: _342  and  _345
REMARK  146  A    between atoms: _345  and  _346
REMARK  147  A    between atoms: _346  and  _347
REMARK  148  A    between atoms: _347  and  _349
REMARK  149  A    between atoms: _349  and  MN_386
REMARK  150  A    between atoms: _350  and  _352
REMARK  151  A    between atoms: _352  and  _353
REMARK  152  A    between atoms: _352  and  _355
REMARK  153  A    between atoms: _355  and  _356
REMARK  154  A    between atoms: _358  and  _360
REMARK  155  A    between atoms: _360  and  _361
REMARK  156  A    between atoms: _360  and  _363
REMARK  157  A    between atoms: _363  and  _364
REMARK  158  A    between atoms: _367  and  _369
REMARK  159  A    between atoms: _369  and  _370
REMARK  160  A    between atoms: _369  and  _372
REMARK  161  A    between atoms: _372  and  _373
REMARK  162  A    between atoms: _373  and  _375
REMARK  163  A    between atoms: _375  and  MN_386
REMARK  164  A    between atoms: _376  and  _378
REMARK  165  A    between atoms: _378  and  _379
REMARK  166  A    between atoms: _378  and  _381
REMARK  167  A    between atoms: _381  and  _382
REMARK  168  A    between atoms: _382  and  _383
REMARK                            x       y       z     vdW  Elec       q    Type
REMARK                         _______ _______ _______ _____ _____    ______ ____
ROOT
ATOM      1  CA  ARG A   5      44.006 -25.140 -13.038  0.00  0.00    +0.149 C 
ENDROOT
BRANCH   1   3
ATOM      2  C   ALA A   4      46.351 -24.577 -12.556  0.00  0.00    +0.241 C 
ATOM      3  N   ARG A   5      45.074 -24.578 -12.192  0.00  0.00    -0.297 N 
ATOM      4  H   ARG A   5      44.817 -24.165 -11.273  0.00  0.00    +0.150 HD
ATOM      5  O   ALA A   4      46.739 -24.970 -13.660  0.00  0.00    -0.273 OA
BRANCH   2   6
ATOM      6  CA  ALA A   4      47.359 -24.088 -11.511  0.00  0.00    +0.149 C 
ATOM      7  CB  ALA A   4      47.807 -25.246 -10.626  0.00  0.00    +0.031 C 
BRANCH   6   9
ATOM      8  C   GLY A   3      46.275 -21.933 -11.200  0.00  0.00    +0.243 C 
ATOM      9  N   ALA A   4      46.820 -23.031 -10.680  0.00  0.00    -0.297 N 
ATOM     10  H   ALA A   4      46.860 -23.133  -9.646  0.00  0.00    +0.150 HD
ATOM     11  O   GLY A   3      46.210 -21.727 -12.408  0.00  0.00    -0.273 OA
BRANCH   8  12
ATOM     12  CA  GLY A   3      45.694 -20.964 -10.184  0.00  0.00    +0.176 C 
BRANCH  12  14
ATOM     13  C   ILE A   2      46.421 -18.797 -10.979  0.00  0.00    +0.241 C 
ATOM     14  N   GLY A   3      45.435 -19.626 -10.691  0.00  0.00    -0.295 N 
ATOM     15  H   GLY A   3      44.452 -19.316 -10.830  0.00  0.00    +0.150 HD
ATOM     16  O   ILE A   2      47.582 -19.156 -11.035  0.00  0.00    -0.273 OA
BRANCH  13  17
ATOM     17  CA  ILE A   2      46.033 -17.363 -11.269  0.00  0.00    +0.148 C 
BRANCH  17  20
ATOM     18  C   ALA A   1      46.272 -15.949  -9.308  0.00  0.00    +0.238 C 
ATOM     19  O   ALA A   1      45.064 -15.728  -9.221  0.00  0.00    -0.274 OA
ATOM     20  N   ILE A   2      46.825 -16.539 -10.365  0.00  0.00    -0.297 N 
ATOM     21  H   ILE A   2      47.840 -16.410 -10.549  0.00  0.00    +0.150 HD
BRANCH  18  22
ATOM     22  CA  ALA A   1      47.216 -15.544  -8.194  0.00  0.00    +0.145 C 
ATOM     23  CB  ALA A   1      47.231 -16.628  -7.167  0.00  0.00    +0.028 C 
BRANCH  22  24
ATOM     24  N   ALA A   1      46.794 -14.298  -7.611  0.00  0.00    -0.238 NA
ATOM     25  H   ALA A   1      45.950 -14.288  -7.003  0.00  0.00    +0.142 HD
ENDBRANCH  22  24
ENDBRANCH  18  22
ENDBRANCH  17  20
BRANCH  17  26
ATOM     26  CB  ILE A   2      46.294 -17.027 -12.756  0.00  0.00    +0.027 C 
ATOM     27  CG2 ILE A   2      45.499 -17.946 -13.669  0.00  0.00    +0.002 C 
BRANCH  26  28
ATOM     28  CG1 ILE A   2      45.970 -15.555 -13.031  0.00  0.00    +0.002 C 
ATOM     29  CD1 ILE A   2      44.523 -15.146 -12.834  0.00  0.00    +0.000 C 
ENDBRANCH  26  28
ENDBRANCH  17  26
ENDBRANCH  13  17
ENDBRANCH  12  14
ENDBRANCH   8  12
ENDBRANCH   6   9
ENDBRANCH   2   6
ENDBRANCH   1   3
BRANCH   1  30
ATOM     30  C   ARG A   5      43.495 -24.198 -14.134  0.00  0.00    +0.241 C 
ATOM     31  N   THR A   6      43.907 -22.945 -14.048  0.00  0.00    -0.295 N 
ATOM     32  H   THR A   6      44.598 -22.706 -13.308  0.00  0.00    +0.150 HD
ATOM     33  O   ARG A   5      42.755 -24.623 -15.021  0.00  0.00    -0.273 OA
BRANCH  31  34
ATOM     34  CA  THR A   6      43.456 -21.894 -14.917  0.00  0.00    +0.176 C 
BRANCH  34  35
ATOM     35  C   THR A   6      44.600 -21.090 -15.618  0.00  0.00    +0.243 C 
ATOM     36  N   THR A   7      45.856 -21.372 -15.307  0.00  0.00    -0.296 N 
ATOM     37  H   THR A   7      46.056 -22.149 -14.645  0.00  0.00    +0.150 HD
ATOM     38  O   THR A   6      44.332 -20.203 -16.434  0.00  0.00    -0.273 OA
BRANCH  36  39
ATOM     39  CA  THR A   7      46.967 -20.611 -15.877  0.00  0.00    +0.164 C 
BRANCH  39  40
ATOM     40  C   THR A   7      47.058 -20.725 -17.422  0.00  0.00    +0.229 C 
ATOM     41  O   THR A   7      47.431 -19.772 -18.095  0.00  0.00    -0.286 OA
ENDBRANCH  39  40
BRANCH  39  42
ATOM     42  CB  THR A   7      48.309 -21.048 -15.241  0.00  0.00    +0.136 C 
ATOM     43  CG2 THR A   7      49.494 -20.604 -16.091  0.00  0.00    +0.034 C 
BRANCH  42  44
ATOM     44  OG1 THR A   7      48.435 -20.462 -13.926  0.00  0.00    -0.382 OA
ATOM     45  HG1 THR A   7      47.685 -20.768 -13.357  0.00  0.00    +0.210 HD
ENDBRANCH  42  44
ENDBRANCH  39  42
ENDBRANCH  36  39
ENDBRANCH  34  35
BRANCH  34  46
ATOM     46  CB  THR A   6      42.524 -20.965 -14.110  0.00  0.00    +0.137 C 
ATOM     47  CG2 THR A   6      41.129 -21.601 -14.024  0.00  0.00    +0.034 C 
BRANCH  46  48
ATOM     48  OG1 THR A   6      43.065 -20.732 -12.785  0.00  0.00    -0.382 OA
ATOM     49  HG1 THR A   6      42.456 -20.135 -12.281  0.00  0.00    +0.210 HD
ENDBRANCH  46  48
ENDBRANCH  34  46
ENDBRANCH  31  34
ENDBRANCH   1  30
BRANCH   1  50
ATOM     50  CB  ARG A   5      42.834 -25.614 -12.171  0.00  0.00    +0.033 C 
BRANCH  50  51
ATOM     51  CG  ARG A   5      43.188 -26.800 -11.281  0.00  0.00    +0.045 C 
BRANCH  51  52
ATOM     52  CD  ARG A   5      42.101 -27.127 -10.248  0.00  0.00    +0.174 C 
BRANCH  52  53
ATOM     53  NE  ARG A   5      42.617 -28.037  -9.222  0.00  0.00    -0.265 N 
ATOM     54  CZ  ARG A   5      43.499 -27.693  -8.275  0.00  0.00    +0.342 C 
ATOM     55  NH2 ARG A   5      43.958 -28.628  -7.465  0.00  0.00    -0.292 N 
ATOM     56 HH21 ARG A   5      44.644 -28.382  -6.723  0.00  0.00    +0.255 HD
ATOM     57 HH22 ARG A   5      43.634 -29.611  -7.569  0.00  0.00    +0.255 HD
ATOM     58  NH1 ARG A   5      43.962 -26.465  -8.154  0.00  0.00    -0.292 N 
ATOM     59 HH11 ARG A   5      44.647 -26.239  -7.404  0.00  0.00    +0.255 HD
ATOM     60 HH12 ARG A   5      43.643 -25.722  -8.808  0.00  0.00    +0.255 HD
ATOM     61  HE  ARG A   5      42.274 -29.019  -9.230  0.00  0.00    +0.259 HD
ENDBRANCH  52  53
ENDBRANCH  51  52
ENDBRANCH  50  51
ENDBRANCH   1  50
TORSDOF 24
REMARK  Name = ../refined-set-2016/4umb/4umb_pocket.pdb
REMARK  168 active torsions:
REMARK  status: ('A' for Active; 'I' for Inactive)
REMARK    1  A    between atoms: _1  and  _3
REMARK    2  A    between atoms: _3  and  _4
REMARK    3  A    between atoms: _3  and  _6
REMARK    4  A    between atoms: _6  and  _7
REMARK    5  A    between atoms: _11  and  _12
REMARK    6  A    between atoms: _17  and  _19
REMARK    7  A    between atoms: _19  and  _20
REMARK    8  A    between atoms: _19  and  _22
REMARK    9  A    between atoms: _22  and  _23
REMARK   10  A    between atoms: _23  and  MN_386
REMARK   11  A    between atoms: _24  and  _26
REMARK   12  A    between atoms: _26  and  _27
REMARK   13  A    between atoms: _26  and  _29
REMARK   14  A    between atoms: _29  and  _30
REMARK   15  A    between atoms: _32  and  _34
REMARK   16  A    between atoms: _34  and  _35
REMARK   17  A    between atoms: _34  and  _37
REMARK   18  A    between atoms: _37  and  _38
REMARK   19  A    between atoms: _38  and  _39
REMARK   20  A    between atoms: _39  and  _40
REMARK   21  A    between atoms: _49  and  _51
REMARK   22  A    between atoms: _51  and  _52
REMARK   23  A    between atoms: _51  and  _54
REMARK   24  A    between atoms: _54  and  _55
REMARK   25  A    between atoms: _60  and  _61
REMARK   26  A    between atoms: _63  and  _65
REMARK   27  A    between atoms: _65  and  _66
REMARK   28  A    between atoms: _65  and  _68
REMARK   29  A    between atoms: _68  and  _69
REMARK   30  A    between atoms: _69  and  _70
REMARK   31  A    between atoms: _73  and  _75
REMARK   32  A    between atoms: _75  and  _76
REMARK   33  A    between atoms: _75  and  _78
REMARK   34  A    between atoms: _78  and  _79
REMARK   35  A    between atoms: _79  and  _80
REMARK   36  A    between atoms: _80  and  _81
REMARK   37  A    between atoms: _81  and  _82
REMARK   38  A    between atoms: _87  and  _88
REMARK   39  A    between atoms: _93  and  _95
REMARK   40  A    between atoms: _95  and  _96
REMARK   41  A    between atoms: _95  and  _98
REMARK   42  A    between atoms: _98  and  _99
REMARK   43  A    between atoms: _99  and  _100
REMARK   44  A    between atoms: _100  and  _101
REMARK   45  A    between atoms: _110  and  _112
REMARK   46  A    between atoms: _112  and  _113
REMARK   47  A    between atoms: _112  and  _115
REMARK   48  A    between atoms: _115  and  _116
REMARK   49  A    between atoms: _119  and  _121
REMARK   50  A    between atoms: _121  and  _122
REMARK   51  A    between atoms: _121  and  _124
REMARK   52  A    between atoms: _124  and  _125
REMARK   53  A    between atoms: _128  and  _130
REMARK   54  A    between atoms: _130  and  _131
REMARK   55  A    between atoms: _130  and  _133
REMARK   56  A    between atoms: _133  and  _134
REMARK   57  A    between atoms: _134  and  _135
REMARK   58  A    between atoms: _138  and  _140
REMARK   59  A    between atoms: _140  and  _141
REMARK   60  A    between atoms: _140  and  _143
REMARK   61  A    between atoms: _143  and  _144
REMARK   62  A    between atoms: _147  and  _149
REMARK   63  A    between atoms: _149  and  _150
REMARK   64  A    between atoms: _153  and  _155
REMARK   65  A    between atoms: _155  and  _156
REMARK   66  A    between atoms: _155  and  _158
REMARK   67  A    between atoms: _158  and  _159
REMARK   68  A    between atoms: _162  and  _164
REMARK   69  A    between atoms: _164  and  _165
REMARK   70  A    between atoms: _167  and  _169
REMARK   71  A    between atoms: _169  and  _170
REMARK   72  A    between atoms: _173  and  _175
REMARK   73  A    between atoms: _175  and  _176
REMARK   74  A    between atoms: _175  and  _178
REMARK   75  A    between atoms: _178  and  _179
REMARK   76  A    between atoms: _179  and  _180
REMARK   77  A    between atoms: _180  and  _181
REMARK   78  A    between atoms: _190  and  _192
REMARK   79  A    between atoms: _192  and  _193
REMARK   80  A    between atoms: _192  and  _195
REMARK   81  A    between atoms: _195  and  _196
REMARK   82  A    between atoms: _199  and  _201
REMARK   83  A    between atoms: _201  and  _202
REMARK   84  A    between atoms: _201  and  _204
REMARK   85  A    between atoms: _204  and  _205
REMARK   86  A    between atoms: _208  and  _210
REMARK   87  A    between atoms: _210  and  _211
REMARK   88  A    between atoms: _210  and  _213
REMARK   89  A    between atoms: _213  and  _214
REMARK   90  A    between atoms: _214  and  _215
REMARK   91  A    between atoms: _215  and  _216
REMARK   92  A    between atoms: _216  and  _217
REMARK   93  A    between atoms: _221  and  _223
REMARK   94  A    between atoms: _223  and  _224
REMARK   95  A    between atoms: _223  and  _226
REMARK   96  A    between atoms: _226  and  _227
REMARK   97  A    between atoms: _232  and  _234
REMARK   98  A    between atoms: _234  and  _235
REMARK   99  A    between atoms: _237  and  _239
REMARK  100  A    between atoms: _239  and  _240
REMARK  101  A    between atoms: _239  and  _242
REMARK  102  A    between atoms: _242  and  _243
REMARK  103  A    between atoms: _246  and  _248
REMARK  104  A    between atoms: _248  and  _249
REMARK  105  A    between atoms: _248  and  _251
REMARK  106  A    between atoms: _251  and  _252
REMARK  107  A    between atoms: _255  and  _257
REMARK  108  A    between atoms: _257  and  _258
REMARK  109  A    between atoms: _257  and  _260
REMARK  110  A    between atoms: _260  and  _261
REMARK  111  A    between atoms: _264  and  _266
REMARK  112  A    between atoms: _266  and  _267
REMARK  113  A    between atoms: _266  and  _269
REMARK  114  A    between atoms: _269  and  _270
REMARK  115  A    between atoms: _270  and  _271
REMARK  116  A    between atoms: _271  and  _272
REMARK  117  A    between atoms: _281  and  _283
REMARK  118  A    between atoms: _283  and  _284
REMARK  119  A    between atoms: _286  and  _288
REMARK  120  A    between atoms: _288  and  _289
REMARK  121  A    between atoms: _288  and  _291
REMARK  122  A    between atoms: _291  and  _292
REMARK  123  A    between atoms: _295  and  _297
REMARK  124  A    between atoms: _297  and  _298
REMARK  125  A    between atoms: _297  and  _300
REMARK  126  A    between atoms: _300  and  _301
REMARK  127  A    between atoms: _303  and  _305
REMARK  128  A    between atoms: _305  and  _306
REMARK  129  A    between atoms: _305  and  _308
REMARK  130  A    between atoms: _308  and  _309
REMARK  131  A    between atoms: _313  and  MN_386
REMARK  132  A    between atoms: _314  and  _316
REMARK  133  A    between atoms: _316  and  _317
REMARK  134  A    between atoms: _320  and  _322
REMARK  135  A    between atoms: _322  and  _323
REMARK  136  A    between atoms: _322  and  _325
REMARK  137  A    between atoms: _325  and  _326
REMARK  138  A    between atoms: _331  and  _333
REMARK  139  A    between atoms: _333  and  _334
REMARK  140  A    between atoms: _333  and  _336
REMARK  141  A    between atoms: _336  and  _337
REMARK  142  A    between atoms: _337  and  _338
REMARK  143  A    between atoms: _340  and  _342
REMARK  144  A    between atoms: _342  and  _343
REMARK  145  A    between atoms: _342  and  _345
REMARK  146  A    between atoms: _345  and  _346
REMARK  147  A    between atoms: _346  and  _347
REMARK  148  A    between atoms: _347  and  _349
REMARK  149  A    between atoms: _349  and  MN_386
REMARK  150  A    between atoms: _350  and  _352
REMARK  151  A    between atoms: _352  and  _353
REMARK  152  A    between atoms: _352  and  _355
REMARK  153  A    between atoms: _355  and  _356
REMARK  154  A    between atoms: _358  and  _360
REMARK  155  A    between atoms: _360  and  _361
REMARK  156  A    between atoms: _360  and  _363
REMARK  157  A    between atoms: _363  and  _364
REMARK  158  A    between atoms: _367  and  _369
REMARK  159  A    between atoms: _369  and  _370
REMARK  160  A    between atoms: _369  and  _372
REMARK  161  A    between atoms: _372  and  _373
REMARK  162  A    between atoms: _373  and  _375
REMARK  163  A    between atoms: _375  and  MN_386
REMARK  164  A    between atoms: _376  and  _378
REMARK  165  A    between atoms: _378  and  _379
REMARK  166  A    between atoms: _378  and  _381
REMARK  167  A    between atoms: _381  and  _382
REMARK  168  A    between atoms: _382  and  _383
REMARK                            x       y       z     vdW  Elec       q    Type
REMARK                         _______ _______ _______ _____ _____    ______ ____
ROOT
ATOM      1  CA  ASN A   2      52.549 -24.210 -13.039  0.00  0.00    +0.158 C 
ENDROOT
BRANCH   1   3
ATOM      2  C   LYS A   1      51.360 -22.226 -12.326  0.00  0.00    +0.238 C 
ATOM      3  N   ASN A   2      52.376 -23.072 -12.164  0.00  0.00    -0.297 N 
ATOM      4  H   ASN A   2      53.057 -22.911 -11.395  0.00  0.00    +0.150 HD
ATOM      5  O   LYS A   1      50.626 -22.226 -13.323  0.00  0.00    -0.274 OA
BRANCH   2   6
ATOM      6  CA  LYS A   1      51.139 -21.231 -11.187  0.00  0.00    +0.145 C 
BRANCH   6   7
ATOM      7  N   LYS A   1      50.653 -19.957 -11.683  0.00  0.00    -0.238 NA
ATOM      8  H   LYS A   1      49.628 -19.785 -11.709  0.00  0.00    +0.142 HD
ENDBRANCH   6   7
BRANCH   6   9
ATOM      9  CB  LYS A   1      50.149 -21.788 -10.182  0.00  0.00    +0.026 C 
BRANCH   9  10
ATOM     10  CG  LYS A   1      50.017 -20.914  -8.924  0.00  0.00    -0.000 C 
BRANCH  10  11
ATOM     11  CD  LYS A   1      49.232 -21.596  -7.821  0.00  0.00    -0.024 C 
BRANCH  11  12
ATOM     12  CE  LYS A   1      49.790 -21.318  -6.445  0.00  0.00    -0.086 C 
BRANCH  12  13
ATOM     13  NZ  LYS A   1      49.227 -22.279  -5.448  0.00  0.00    +0.380 N 
ATOM     14  HZ1 LYS A   1      49.622 -22.073  -4.508  0.00  0.00    -0.089 HD
ATOM     15  HZ2 LYS A   1      48.192 -22.181  -5.420  0.00  0.00    -0.089 HD
ATOM     16  HZ3 LYS A   1      49.477 -23.250  -5.725  0.00  0.00    -0.089 HD
ENDBRANCH  12  13
ENDBRANCH  11  12
ENDBRANCH  10  11
ENDBRANCH   9  10
ENDBRANCH   6   9
ENDBRANCH   2   6
ENDBRANCH   1   3
BRANCH   1  17
ATOM     17  C   ASN A   2      51.308 -25.103 -12.948  0.00  0.00    +0.241 C 
ATOM     18  O   ASN A   2      50.537 -25.028 -11.968  0.00  0.00    -0.273 OA
ATOM     19  N   GLY A   3      51.110 -25.939 -13.968  0.00  0.00    -0.295 N 
ATOM     20  H   GLY A   3      51.805 -25.967 -14.742  0.00  0.00    +0.150 HD
BRANCH  19  21
ATOM     21  CA  GLY A   3      49.942 -26.818 -14.028  0.00  0.00    +0.176 C 
BRANCH  21  22
ATOM     22  C   GLY A   3      49.969 -27.951 -13.008  0.00  0.00    +0.243 C 
ATOM     23  O   GLY A   3      51.028 -28.305 -12.482  0.00  0.00    -0.273 OA
ATOM     24  N   THR A   4      48.816 -28.549 -12.755  0.00  0.00    -0.296 N 
ATOM     25  H   THR A   4      47.985 -28.333 -13.342  0.00  0.00    +0.150 HD
BRANCH  24  26
ATOM     26  CA  THR A   4      48.696 -29.510 -11.659  0.00  0.00    +0.164 C 
BRANCH  26  27
ATOM     27  C   THR A   4      49.585 -30.751 -11.850  0.00  0.00    +0.229 C 
ATOM     28  O   THR A   4      49.942 -31.401 -10.861  0.00  0.00    -0.286 OA
ENDBRANCH  26  27
BRANCH  26  29
ATOM     29  CB  THR A   4      47.222 -29.905 -11.404  0.00  0.00    +0.136 C 
ATOM     30  CG2 THR A   4      46.446 -28.719 -10.905  0.00  0.00    +0.034 C 
BRANCH  29  31
ATOM     31  OG1 THR A   4      46.642 -30.356 -12.616  0.00  0.00    -0.382 OA
ATOM     32  HG1 THR A   4      45.699 -30.609 -12.455  0.00  0.00    +0.210 HD
ENDBRANCH  29  31
ENDBRANCH  26  29
ENDBRANCH  24  26
ENDBRANCH  21  22
ENDBRANCH  19  21
ENDBRANCH   1  17
BRANCH   1  33
ATOM     33  CB  ASN A   2      53.873 -24.969 -12.745  0.00  0.00    +0.114 C 
BRANCH  33  34
ATOM     34  CG  ASN A   2      53.911 -25.657 -11.355  0.00  0.00    +0.222 C 
ATOM     35  OD1 ASN A   2      54.687 -25.265 -10.480  0.00  0.00    -0.275 OA
ATOM     36  ND2 ASN A   2      53.156 -26.749 -11.205  0.00  0.00    -0.329 N 
ATOM     37 HD21 ASN A   2      53.210 -27.302 -10.326  0.00  0.00    +0.145 HD
ATOM     38 HD22 ASN A   2      52.514 -27.046 -11.967  0.00  0.00    +0.145 HD
ENDBRANCH  33  34
ENDBRANCH   1  33
TORSDOF 17
REMARK  Name = ../refined-set-2016/4umb/4umb_pocket.pdb
REMARK  168 active torsions:
REMARK  status: ('A' for Active; 'I' for Inactive)
REMARK    1  A    between atoms: _1  and  _3
REMARK    2  A    between atoms: _3  and  _4
REMARK    3  A    between atoms: _3  and  _6
REMARK    4  A    between atoms: _6  and  _7
REMARK    5  A    between atoms: _11  and  _12
REMARK    6  A    between atoms: _17  and  _19
REMARK    7  A    between atoms: _19  and  _20
REMARK    8  A    between atoms: _19  and  _22
REMARK    9  A    between atoms: _22  and  _23
REMARK   10  A    between atoms: _23  and  MN_386
REMARK   11  A    between atoms: _24  and  _26
REMARK   12  A    between atoms: _26  and  _27
REMARK   13  A    between atoms: _26  and  _29
REMARK   14  A    between atoms: _29  and  _30
REMARK   15  A    between atoms: _32  and  _34
REMARK   16  A    between atoms: _34  and  _35
REMARK   17  A    between atoms: _34  and  _37
REMARK   18  A    between atoms: _37  and  _38
REMARK   19  A    between atoms: _38  and  _39
REMARK   20  A    between atoms: _39  and  _40
REMARK   21  A    between atoms: _49  and  _51
REMARK   22  A    between atoms: _51  and  _52
REMARK   23  A    between atoms: _51  and  _54
REMARK   24  A    between atoms: _54  and  _55
REMARK   25  A    between atoms: _60  and  _61
REMARK   26  A    between atoms: _63  and  _65
REMARK   27  A    between atoms: _65  and  _66
REMARK   28  A    between atoms: _65  and  _68
REMARK   29  A    between atoms: _68  and  _69
REMARK   30  A    between atoms: _69  and  _70
REMARK   31  A    between atoms: _73  and  _75
REMARK   32  A    between atoms: _75  and  _76
REMARK   33  A    between atoms: _75  and  _78
REMARK   34  A    between atoms: _78  and  _79
REMARK   35  A    between atoms: _79  and  _80
REMARK   36  A    between atoms: _80  and  _81
REMARK   37  A    between atoms: _81  and  _82
REMARK   38  A    between atoms: _87  and  _88
REMARK   39  A    between atoms: _93  and  _95
REMARK   40  A    between atoms: _95  and  _96
REMARK   41  A    between atoms: _95  and  _98
REMARK   42  A    between atoms: _98  and  _99
REMARK   43  A    between atoms: _99  and  _100
REMARK   44  A    between atoms: _100  and  _101
REMARK   45  A    between atoms: _110  and  _112
REMARK   46  A    between atoms: _112  and  _113
REMARK   47  A    between atoms: _112  and  _115
REMARK   48  A    between atoms: _115  and  _116
REMARK   49  A    between atoms: _119  and  _121
REMARK   50  A    between atoms: _121  and  _122
REMARK   51  A    between atoms: _121  and  _124
REMARK   52  A    between atoms: _124  and  _125
REMARK   53  A    between atoms: _128  and  _130
REMARK   54  A    between atoms: _130  and  _131
REMARK   55  A    between atoms: _130  and  _133
REMARK   56  A    between atoms: _133  and  _134
REMARK   57  A    between atoms: _134  and  _135
REMARK   58  A    between atoms: _138  and  _140
REMARK   59  A    between atoms: _140  and  _141
REMARK   60  A    between atoms: _140  and  _143
REMARK   61  A    between atoms: _143  and  _144
REMARK   62  A    between atoms: _147  and  _149
REMARK   63  A    between atoms: _149  and  _150
REMARK   64  A    between atoms: _153  and  _155
REMARK   65  A    between atoms: _155  and  _156
REMARK   66  A    between atoms: _155  and  _158
REMARK   67  A    between atoms: _158  and  _159
REMARK   68  A    between atoms: _162  and  _164
REMARK   69  A    between atoms: _164  and  _165
REMARK   70  A    between atoms: _167  and  _169
REMARK   71  A    between atoms: _169  and  _170
REMARK   72  A    between atoms: _173  and  _175
REMARK   73  A    between atoms: _175  and  _176
REMARK   74  A    between atoms: _175  and  _178
REMARK   75  A    between atoms: _178  and  _179
REMARK   76  A    between atoms: _179  and  _180
REMARK   77  A    between atoms: _180  and  _181
REMARK   78  A    between atoms: _190  and  _192
REMARK   79  A    between atoms: _192  and  _193
REMARK   80  A    between atoms: _192  and  _195
REMARK   81  A    between atoms: _195  and  _196
REMARK   82  A    between atoms: _199  and  _201
REMARK   83  A    between atoms: _201  and  _202
REMARK   84  A    between atoms: _201  and  _204
REMARK   85  A    between atoms: _204  and  _205
REMARK   86  A    between atoms: _208  and  _210
REMARK   87  A    between atoms: _210  and  _211
REMARK   88  A    between atoms: _210  and  _213
REMARK   89  A    between atoms: _213  and  _214
REMARK   90  A    between atoms: _214  and  _215
REMARK   91  A    between atoms: _215  and  _216
REMARK   92  A    between atoms: _216  and  _217
REMARK   93  A    between atoms: _221  and  _223
REMARK   94  A    between atoms: _223  and  _224
REMARK   95  A    between atoms: _223  and  _226
REMARK   96  A    between atoms: _226  and  _227
REMARK   97  A    between atoms: _232  and  _234
REMARK   98  A    between atoms: _234  and  _235
REMARK   99  A    between atoms: _237  and  _239
REMARK  100  A    between atoms: _239  and  _240
REMARK  101  A    between atoms: _239  and  _242
REMARK  102  A    between atoms: _242  and  _243
REMARK  103  A    between atoms: _246  and  _248
REMARK  104  A    between atoms: _248  and  _249
REMARK  105  A    between atoms: _248  and  _251
REMARK  106  A    between atoms: _251  and  _252
REMARK  107  A    between atoms: _255  and  _257
REMARK  108  A    between atoms: _257  and  _258
REMARK  109  A    between atoms: _257  and  _260
REMARK  110  A    between atoms: _260  and  _261
REMARK  111  A    between atoms: _264  and  _266
REMARK  112  A    between atoms: _266  and  _267
REMARK  113  A    between atoms: _266  and  _269
REMARK  114  A    between atoms: _269  and  _270
REMARK  115  A    between atoms: _270  and  _271
REMARK  116  A    between atoms: _271  and  _272
REMARK  117  A    between atoms: _281  and  _283
REMARK  118  A    between atoms: _283  and  _284
REMARK  119  A    between atoms: _286  and  _288
REMARK  120  A    between atoms: _288  and  _289
REMARK  121  A    between atoms: _288  and  _291
REMARK  122  A    between atoms: _291  and  _292
REMARK  123  A    between atoms: _295  and  _297
REMARK  124  A    between atoms: _297  and  _298
REMARK  125  A    between atoms: _297  and  _300
REMARK  126  A    between atoms: _300  and  _301
REMARK  127  A    between atoms: _303  and  _305
REMARK  128  A    between atoms: _305  and  _306
REMARK  129  A    between atoms: _305  and  _308
REMARK  130  A    between atoms: _308  and  _309
REMARK  131  A    between atoms: _313  and  MN_386
REMARK  132  A    between atoms: _314  and  _316
REMARK  133  A    between atoms: _316  and  _317
REMARK  134  A    between atoms: _320  and  _322
REMARK  135  A    between atoms: _322  and  _323
REMARK  136  A    between atoms: _322  and  _325
REMARK  137  A    between atoms: _325  and  _326
REMARK  138  A    between atoms: _331  and  _333
REMARK  139  A    between atoms: _333  and  _334
REMARK  140  A    between atoms: _333  and  _336
REMARK  141  A    between atoms: _336  and  _337
REMARK  142  A    between atoms: _337  and  _338
REMARK  143  A    between atoms: _340  and  _342
REMARK  144  A    between atoms: _342  and  _343
REMARK  145  A    between atoms: _342  and  _345
REMARK  146  A    between atoms: _345  and  _346
REMARK  147  A    between atoms: _346  and  _347
REMARK  148  A    between atoms: _347  and  _349
REMARK  149  A    between atoms: _349  and  MN_386
REMARK  150  A    between atoms: _350  and  _352
REMARK  151  A    between atoms: _352  and  _353
REMARK  152  A    between atoms: _352  and  _355
REMARK  153  A    between atoms: _355  and  _356
REMARK  154  A    between atoms: _358  and  _360
REMARK  155  A    between atoms: _360  and  _361
REMARK  156  A    between atoms: _360  and  _363
REMARK  157  A    between atoms: _363  and  _364
REMARK  158  A    between atoms: _367  and  _369
REMARK  159  A    between atoms: _369  and  _370
REMARK  160  A    between atoms: _369  and  _372
REMARK  161  A    between atoms: _372  and  _373
REMARK  162  A    between atoms: _373  and  _375
REMARK  163  A    between atoms: _375  and  MN_386
REMARK  164  A    between atoms: _376  and  _378
REMARK  165  A    between atoms: _378  and  _379
REMARK  166  A    between atoms: _378  and  _381
REMARK  167  A    between atoms: _381  and  _382
REMARK  168  A    between atoms: _382  and  _383
REMARK                            x       y       z     vdW  Elec       q    Type
REMARK                         _______ _______ _______ _____ _____    ______ ____
ROOT
ATOM      1  C   LEU A   2      55.601 -23.813  -7.371  0.00  0.00    +0.241 C 
ATOM      2  O   LEU A   2      55.876 -23.494  -6.213  0.00  0.00    -0.273 OA
ATOM      3  N   ARG A   3      54.626 -24.659  -7.686  0.00  0.00    -0.297 N 
ATOM      4  H   ARG A   3      54.496 -24.932  -8.681  0.00  0.00    +0.150 HD
ENDROOT
BRANCH   1   5
ATOM      5  CA  LEU A   2      56.387 -23.234  -8.547  0.00  0.00    +0.149 C 
BRANCH   5   7
ATOM      6  C   ILE A   1      55.165 -21.262  -9.286  0.00  0.00    +0.238 C 
ATOM      7  N   LEU A   2      56.167 -21.794  -8.626  0.00  0.00    -0.297 N 
ATOM      8  H   LEU A   2      56.833 -21.162  -8.138  0.00  0.00    +0.150 HD
ATOM      9  O   ILE A   1      54.421 -21.933  -9.989  0.00  0.00    -0.274 OA
BRANCH   6  10
ATOM     10  CA  ILE A   1      54.952 -19.759  -9.098  0.00  0.00    +0.145 C 
BRANCH  10  11
ATOM     11  CB  ILE A   1      53.610 -19.557  -8.377  0.00  0.00    +0.025 C 
ATOM     12  CG2 ILE A   1      53.637 -20.231  -7.015  0.00  0.00    +0.002 C 
BRANCH  11  13
ATOM     13  CG1 ILE A   1      53.280 -18.074  -8.218  0.00  0.00    +0.002 C 
ATOM     14  CD1 ILE A   1      51.816 -17.818  -7.975  0.00  0.00    +0.000 C 
ENDBRANCH  11  13
ENDBRANCH  10  11
BRANCH  10  15
ATOM     15  N   ILE A   1      54.938 -19.123 -10.385  0.00  0.00    -0.238 NA
ATOM     16  H   ILE A   1      54.287 -19.498 -11.105  0.00  0.00    +0.142 HD
ENDBRANCH  10  15
ENDBRANCH   6  10
ENDBRANCH   5   7
BRANCH   5  17
ATOM     17  CB  LEU A   2      57.873 -23.530  -8.328  0.00  0.00    +0.029 C 
BRANCH  17  18
ATOM     18  CG  LEU A   2      58.803 -22.947  -9.386  0.00  0.00    +0.002 C 
ATOM     19  CD2 LEU A   2      60.252 -23.221  -9.031  0.00  0.00    +0.000 C 
ATOM     20  CD1 LEU A   2      58.463 -23.527 -10.746  0.00  0.00    +0.000 C 
ENDBRANCH  17  18
ENDBRANCH   5  17
ENDBRANCH   1   5
BRANCH   3  21
ATOM     21  CA  ARG A   3      53.728 -25.219  -6.672  0.00  0.00    +0.149 C 
BRANCH  21  22
ATOM     22  C   ARG A   3      53.640 -26.739  -6.751  0.00  0.00    +0.241 C 
ATOM     23  O   ARG A   3      52.708 -27.351  -6.213  0.00  0.00    -0.273 OA
ATOM     24  N   GLY A   4      54.604 -27.346  -7.418  0.00  0.00    -0.296 N 
ATOM     25  H   GLY A   4      55.345 -26.769  -7.865  0.00  0.00    +0.150 HD
BRANCH  24  26
ATOM     26  CA  GLY A   4      54.666 -28.791  -7.550  0.00  0.00    +0.163 C 
BRANCH  26  27
ATOM     27  C   GLY A   4      53.760 -29.372  -8.606  0.00  0.00    +0.229 C 
ATOM     28  O   GLY A   4      52.848 -28.722  -9.097  0.00  0.00    -0.286 OA
ENDBRANCH  26  27
ENDBRANCH  24  26
ENDBRANCH  21  22
BRANCH  21  29
ATOM     29  CB  ARG A   3      52.325 -24.585  -6.754  0.00  0.00    +0.033 C 
BRANCH  29  30
ATOM     30  CG  ARG A   3      51.721 -24.558  -8.154  0.00  0.00    +0.045 C 
BRANCH  30  31
ATOM     31  CD  ARG A   3      51.162 -25.904  -8.568  0.00  0.00    +0.174 C 
BRANCH  31  32
ATOM     32  NE  ARG A   3      49.929 -26.204  -7.843  0.00  0.00    -0.265 N 
ATOM     33  HE  ARG A   3      49.457 -25.427  -7.337  0.00  0.00    +0.259 HD
ATOM     34  CZ  ARG A   3      49.378 -27.405  -7.792  0.00  0.00    +0.342 C 
ATOM     35  NH2 ARG A   3      48.240 -27.574  -7.154  0.00  0.00    -0.292 N 
ATOM     36 HH21 ARG A   3      47.777 -26.765  -6.692  0.00  0.00    +0.255 HD
ATOM     37 HH22 ARG A   3      47.803 -28.517  -7.111  0.00  0.00    +0.255 HD
ATOM     38  NH1 ARG A   3      49.966 -28.444  -8.378  0.00  0.00    -0.292 N 
ATOM     39 HH11 ARG A   3      49.525 -29.385  -8.333  0.00  0.00    +0.255 HD
ATOM     40 HH12 ARG A   3      50.867 -28.316  -8.882  0.00  0.00    +0.255 HD
ENDBRANCH  31  32
ENDBRANCH  30  31
ENDBRANCH  29  30
ENDBRANCH  21  29
ENDBRANCH   3  21
TORSDOF 16
REMARK  Name = ../refined-set-2016/4umb/4umb_pocket.pdb
REMARK  168 active torsions:
REMARK  status: ('A' for Active; 'I' for Inactive)
REMARK    1  A    between atoms: _1  and  _3
REMARK    2  A    between atoms: _3  and  _4
REMARK    3  A    between atoms: _3  and  _6
REMARK    4  A    between atoms: _6  and  _7
REMARK    5  A    between atoms: _11  and  _12
REMARK    6  A    between atoms: _17  and  _19
REMARK    7  A    between atoms: _19  and  _20
REMARK    8  A    between atoms: _19  and  _22
REMARK    9  A    between atoms: _22  and  _23
REMARK   10  A    between atoms: _23  and  MN_386
REMARK   11  A    between atoms: _24  and  _26
REMARK   12  A    between atoms: _26  and  _27
REMARK   13  A    between atoms: _26  and  _29
REMARK   14  A    between atoms: _29  and  _30
REMARK   15  A    between atoms: _32  and  _34
REMARK   16  A    between atoms: _34  and  _35
REMARK   17  A    between atoms: _34  and  _37
REMARK   18  A    between atoms: _37  and  _38
REMARK   19  A    between atoms: _38  and  _39
REMARK   20  A    between atoms: _39  and  _40
REMARK   21  A    between atoms: _49  and  _51
REMARK   22  A    between atoms: _51  and  _52
REMARK   23  A    between atoms: _51  and  _54
REMARK   24  A    between atoms: _54  and  _55
REMARK   25  A    between atoms: _60  and  _61
REMARK   26  A    between atoms: _63  and  _65
REMARK   27  A    between atoms: _65  and  _66
REMARK   28  A    between atoms: _65  and  _68
REMARK   29  A    between atoms: _68  and  _69
REMARK   30  A    between atoms: _69  and  _70
REMARK   31  A    between atoms: _73  and  _75
REMARK   32  A    between atoms: _75  and  _76
REMARK   33  A    between atoms: _75  and  _78
REMARK   34  A    between atoms: _78  and  _79
REMARK   35  A    between atoms: _79  and  _80
REMARK   36  A    between atoms: _80  and  _81
REMARK   37  A    between atoms: _81  and  _82
REMARK   38  A    between atoms: _87  and  _88
REMARK   39  A    between atoms: _93  and  _95
REMARK   40  A    between atoms: _95  and  _96
REMARK   41  A    between atoms: _95  and  _98
REMARK   42  A    between atoms: _98  and  _99
REMARK   43  A    between atoms: _99  and  _100
REMARK   44  A    between atoms: _100  and  _101
REMARK   45  A    between atoms: _110  and  _112
REMARK   46  A    between atoms: _112  and  _113
REMARK   47  A    between atoms: _112  and  _115
REMARK   48  A    between atoms: _115  and  _116
REMARK   49  A    between atoms: _119  and  _121
REMARK   50  A    between atoms: _121  and  _122
REMARK   51  A    between atoms: _121  and  _124
REMARK   52  A    between atoms: _124  and  _125
REMARK   53  A    between atoms: _128  and  _130
REMARK   54  A    between atoms: _130  and  _131
REMARK   55  A    between atoms: _130  and  _133
REMARK   56  A    between atoms: _133  and  _134
REMARK   57  A    between atoms: _134  and  _135
REMARK   58  A    between atoms: _138  and  _140
REMARK   59  A    between atoms: _140  and  _141
REMARK   60  A    between atoms: _140  and  _143
REMARK   61  A    between atoms: _143  and  _144
REMARK   62  A    between atoms: _147  and  _149
REMARK   63  A    between atoms: _149  and  _150
REMARK   64  A    between atoms: _153  and  _155
REMARK   65  A    between atoms: _155  and  _156
REMARK   66  A    between atoms: _155  and  _158
REMARK   67  A    between atoms: _158  and  _159
REMARK   68  A    between atoms: _162  and  _164
REMARK   69  A    between atoms: _164  and  _165
REMARK   70  A    between atoms: _167  and  _169
REMARK   71  A    between atoms: _169  and  _170
REMARK   72  A    between atoms: _173  and  _175
REMARK   73  A    between atoms: _175  and  _176
REMARK   74  A    between atoms: _175  and  _178
REMARK   75  A    between atoms: _178  and  _179
REMARK   76  A    between atoms: _179  and  _180
REMARK   77  A    between atoms: _180  and  _181
REMARK   78  A    between atoms: _190  and  _192
REMARK   79  A    between atoms: _192  and  _193
REMARK   80  A    between atoms: _192  and  _195
REMARK   81  A    between atoms: _195  and  _196
REMARK   82  A    between atoms: _199  and  _201
REMARK   83  A    between atoms: _201  and  _202
REMARK   84  A    between atoms: _201  and  _204
REMARK   85  A    between atoms: _204  and  _205
REMARK   86  A    between atoms: _208  and  _210
REMARK   87  A    between atoms: _210  and  _211
REMARK   88  A    between atoms: _210  and  _213
REMARK   89  A    between atoms: _213  and  _214
REMARK   90  A    between atoms: _214  and  _215
REMARK   91  A    between atoms: _215  and  _216
REMARK   92  A    between atoms: _216  and  _217
REMARK   93  A    between atoms: _221  and  _223
REMARK   94  A    between atoms: _223  and  _224
REMARK   95  A    between atoms: _223  and  _226
REMARK   96  A    between atoms: _226  and  _227
REMARK   97  A    between atoms: _232  and  _234
REMARK   98  A    between atoms: _234  and  _235
REMARK   99  A    between atoms: _237  and  _239
REMARK  100  A    between atoms: _239  and  _240
REMARK  101  A    between atoms: _239  and  _242
REMARK  102  A    between atoms: _242  and  _243
REMARK  103  A    between atoms: _246  and  _248
REMARK  104  A    between atoms: _248  and  _249
REMARK  105  A    between atoms: _248  and  _251
REMARK  106  A    between atoms: _251  and  _252
REMARK  107  A    between atoms: _255  and  _257
REMARK  108  A    between atoms: _257  and  _258
REMARK  109  A    between atoms: _257  and  _260
REMARK  110  A    between atoms: _260  and  _261
REMARK  111  A    between atoms: _264  and  _266
REMARK  112  A    between atoms: _266  and  _267
REMARK  113  A    between atoms: _266  and  _269
REMARK  114  A    between atoms: _269  and  _270
REMARK  115  A    between atoms: _270  and  _271
REMARK  116  A    between atoms: _271  and  _272
REMARK  117  A    between atoms: _281  and  _283
REMARK  118  A    between atoms: _283  and  _284
REMARK  119  A    between atoms: _286  and  _288
REMARK  120  A    between atoms: _288  and  _289
REMARK  121  A    between atoms: _288  and  _291
REMARK  122  A    between atoms: _291  and  _292
REMARK  123  A    between atoms: _295  and  _297
REMARK  124  A    between atoms: _297  and  _298
REMARK  125  A    between atoms: _297  and  _300
REMARK  126  A    between atoms: _300  and  _301
REMARK  127  A    between atoms: _303  and  _305
REMARK  128  A    between atoms: _305  and  _306
REMARK  129  A    between atoms: _305  and  _308
REMARK  130  A    between atoms: _308  and  _309
REMARK  131  A    between atoms: _313  and  MN_386
REMARK  132  A    between atoms: _314  and  _316
REMARK  133  A    between atoms: _316  and  _317
REMARK  134  A    between atoms: _320  and  _322
REMARK  135  A    between atoms: _322  and  _323
REMARK  136  A    between atoms: _322  and  _325
REMARK  137  A    between atoms: _325  and  _326
REMARK  138  A    between atoms: _331  and  _333
REMARK  139  A    between atoms: _333  and  _334
REMARK  140  A    between atoms: _333  and  _336
REMARK  141  A    between atoms: _336  and  _337
REMARK  142  A    between atoms: _337  and  _338
REMARK  143  A    between atoms: _340  and  _342
REMARK  144  A    between atoms: _342  and  _343
REMARK  145  A    between atoms: _342  and  _345
REMARK  146  A    between atoms: _345  and  _346
REMARK  147  A    between atoms: _346  and  _347
REMARK  148  A    between atoms: _347  and  _349
REMARK  149  A    between atoms: _349  and  MN_386
REMARK  150  A    between atoms: _350  and  _352
REMARK  151  A    between atoms: _352  and  _353
REMARK  152  A    between atoms: _352  and  _355
REMARK  153  A    between atoms: _355  and  _356
REMARK  154  A    between atoms: _358  and  _360
REMARK  155  A    between atoms: _360  and  _361
REMARK  156  A    between atoms: _360  and  _363
REMARK  157  A    between atoms: _363  and  _364
REMARK  158  A    between atoms: _367  and  _369
REMARK  159  A    between atoms: _369  and  _370
REMARK  160  A    between atoms: _369  and  _372
REMARK  161  A    between atoms: _372  and  _373
REMARK  162  A    between atoms: _373  and  _375
REMARK  163  A    between atoms: _375  and  MN_386
REMARK  164  A    between atoms: _376  and  _378
REMARK  165  A    between atoms: _378  and  _379
REMARK  166  A    between atoms: _378  and  _381
REMARK  167  A    between atoms: _381  and  _382
REMARK  168  A    between atoms: _382  and  _383
REMARK                            x       y       z     vdW  Elec       q    Type
REMARK                         _______ _______ _______ _____ _____    ______ ____
ROOT
ATOM      1  CA  ASP A   1      54.693 -22.382  -2.961  0.00  0.00    +0.144 C 
ENDROOT
BRANCH   1   2
ATOM      2  N   ASP A   1      55.755 -22.040  -3.872  0.00  0.00    -0.239 NA
ATOM      3  H   ASP A   1      55.743 -22.433  -4.835  0.00  0.00    +0.142 HD
ENDBRANCH   1   2
BRANCH   1   4
ATOM      4  C   ASP A   1      55.191 -23.537  -2.089  0.00  0.00    +0.225 C 
ATOM      5  O   ASP A   1      55.584 -24.575  -2.602  0.00  0.00    -0.287 OA
ENDBRANCH   1   4
BRANCH   1   6
ATOM      6  CB  ASP A   1      53.438 -22.758  -3.766  0.00  0.00    +0.139 C 
BRANCH   6   7
ATOM      7  CG  ASP A   1      52.208 -23.061  -2.907  0.00  0.00    +0.367 C 
ATOM      8  OD2 ASP A   1      52.280 -23.045  -1.659  0.00  0.00    -0.246 OA
ATOM      9  OD1 ASP A   1      51.146 -23.314  -3.519  0.00  0.00    -0.246 OA
ENDBRANCH   6   7
ENDBRANCH   1   6
TORSDOF 4
REMARK  Name = ../refined-set-2016/4umb/4umb_pocket.pdb
REMARK  168 active torsions:
REMARK  status: ('A' for Active; 'I' for Inactive)
REMARK    1  A    between atoms: _1  and  _3
REMARK    2  A    between atoms: _3  and  _4
REMARK    3  A    between atoms: _3  and  _6
REMARK    4  A    between atoms: _6  and  _7
REMARK    5  A    between atoms: _11  and  _12
REMARK    6  A    between atoms: _17  and  _19
REMARK    7  A    between atoms: _19  and  _20
REMARK    8  A    between atoms: _19  and  _22
REMARK    9  A    between atoms: _22  and  _23
REMARK   10  A    between atoms: _23  and  MN_386
REMARK   11  A    between atoms: _24  and  _26
REMARK   12  A    between atoms: _26  and  _27
REMARK   13  A    between atoms: _26  and  _29
REMARK   14  A    between atoms: _29  and  _30
REMARK   15  A    between atoms: _32  and  _34
REMARK   16  A    between atoms: _34  and  _35
REMARK   17  A    between atoms: _34  and  _37
REMARK   18  A    between atoms: _37  and  _38
REMARK   19  A    between atoms: _38  and  _39
REMARK   20  A    between atoms: _39  and  _40
REMARK   21  A    between atoms: _49  and  _51
REMARK   22  A    between atoms: _51  and  _52
REMARK   23  A    between atoms: _51  and  _54
REMARK   24  A    between atoms: _54  and  _55
REMARK   25  A    between atoms: _60  and  _61
REMARK   26  A    between atoms: _63  and  _65
REMARK   27  A    between atoms: _65  and  _66
REMARK   28  A    between atoms: _65  and  _68
REMARK   29  A    between atoms: _68  and  _69
REMARK   30  A    between atoms: _69  and  _70
REMARK   31  A    between atoms: _73  and  _75
REMARK   32  A    between atoms: _75  and  _76
REMARK   33  A    between atoms: _75  and  _78
REMARK   34  A    between atoms: _78  and  _79
REMARK   35  A    between atoms: _79  and  _80
REMARK   36  A    between atoms: _80  and  _81
REMARK   37  A    between atoms: _81  and  _82
REMARK   38  A    between atoms: _87  and  _88
REMARK   39  A    between atoms: _93  and  _95
REMARK   40  A    between atoms: _95  and  _96
REMARK   41  A    between atoms: _95  and  _98
REMARK   42  A    between atoms: _98  and  _99
REMARK   43  A    between atoms: _99  and  _100
REMARK   44  A    between atoms: _100  and  _101
REMARK   45  A    between atoms: _110  and  _112
REMARK   46  A    between atoms: _112  and  _113
REMARK   47  A    between atoms: _112  and  _115
REMARK   48  A    between atoms: _115  and  _116
REMARK   49  A    between atoms: _119  and  _121
REMARK   50  A    between atoms: _121  and  _122
REMARK   51  A    between atoms: _121  and  _124
REMARK   52  A    between atoms: _124  and  _125
REMARK   53  A    between atoms: _128  and  _130
REMARK   54  A    between atoms: _130  and  _131
REMARK   55  A    between atoms: _130  and  _133
REMARK   56  A    between atoms: _133  and  _134
REMARK   57  A    between atoms: _134  and  _135
REMARK   58  A    between atoms: _138  and  _140
REMARK   59  A    between atoms: _140  and  _141
REMARK   60  A    between atoms: _140  and  _143
REMARK   61  A    between atoms: _143  and  _144
REMARK   62  A    between atoms: _147  and  _149
REMARK   63  A    between atoms: _149  and  _150
REMARK   64  A    between atoms: _153  and  _155
REMARK   65  A    between atoms: _155  and  _156
REMARK   66  A    between atoms: _155  and  _158
REMARK   67  A    between atoms: _158  and  _159
REMARK   68  A    between atoms: _162  and  _164
REMARK   69  A    between atoms: _164  and  _165
REMARK   70  A    between atoms: _167  and  _169
REMARK   71  A    between atoms: _169  and  _170
REMARK   72  A    between atoms: _173  and  _175
REMARK   73  A    between atoms: _175  and  _176
REMARK   74  A    between atoms: _175  and  _178
REMARK   75  A    between atoms: _178  and  _179
REMARK   76  A    between atoms: _179  and  _180
REMARK   77  A    between atoms: _180  and  _181
REMARK   78  A    between atoms: _190  and  _192
REMARK   79  A    between atoms: _192  and  _193
REMARK   80  A    between atoms: _192  and  _195
REMARK   81  A    between atoms: _195  and  _196
REMARK   82  A    between atoms: _199  and  _201
REMARK   83  A    between atoms: _201  and  _202
REMARK   84  A    between atoms: _201  and  _204
REMARK   85  A    between atoms: _204  and  _205
REMARK   86  A    between atoms: _208  and  _210
REMARK   87  A    between atoms: _210  and  _211
REMARK   88  A    between atoms: _210  and  _213
REMARK   89  A    between atoms: _213  and  _214
REMARK   90  A    between atoms: _214  and  _215
REMARK   91  A    between atoms: _215  and  _216
REMARK   92  A    between atoms: _216  and  _217
REMARK   93  A    between atoms: _221  and  _223
REMARK   94  A    between atoms: _223  and  _224
REMARK   95  A    between atoms: _223  and  _226
REMARK   96  A    between atoms: _226  and  _227
REMARK   97  A    between atoms: _232  and  _234
REMARK   98  A    between atoms: _234  and  _235
REMARK   99  A    between atoms: _237  and  _239
REMARK  100  A    between atoms: _239  and  _240
REMARK  101  A    between atoms: _239  and  _242
REMARK  102  A    between atoms: _242  and  _243
REMARK  103  A    between atoms: _246  and  _248
REMARK  104  A    between atoms: _248  and  _249
REMARK  105  A    between atoms: _248  and  _251
REMARK  106  A    between atoms: _251  and  _252
REMARK  107  A    between atoms: _255  and  _257
REMARK  108  A    between atoms: _257  and  _258
REMARK  109  A    between atoms: _257  and  _260
REMARK  110  A    between atoms: _260  and  _261
REMARK  111  A    between atoms: _264  and  _266
REMARK  112  A    between atoms: _266  and  _267
REMARK  113  A    between atoms: _266  and  _269
REMARK  114  A    between atoms: _269  and  _270
REMARK  115  A    between atoms: _270  and  _271
REMARK  116  A    between atoms: _271  and  _272
REMARK  117  A    between atoms: _281  and  _283
REMARK  118  A    between atoms: _283  and  _284
REMARK  119  A    between atoms: _286  and  _288
REMARK  120  A    between atoms: _288  and  _289
REMARK  121  A    between atoms: _288  and  _291
REMARK  122  A    between atoms: _291  and  _292
REMARK  123  A    between atoms: _295  and  _297
REMARK  124  A    between atoms: _297  and  _298
REMARK  125  A    between atoms: _297  and  _300
REMARK  126  A    between atoms: _300  and  _301
REMARK  127  A    between atoms: _303  and  _305
REMARK  128  A    between atoms: _305  and  _306
REMARK  129  A    between atoms: _305  and  _308
REMARK  130  A    between atoms: _308  and  _309
REMARK  131  A    between atoms: _313  and  MN_386
REMARK  132  A    between atoms: _314  and  _316
REMARK  133  A    between atoms: _316  and  _317
REMARK  134  A    between atoms: _320  and  _322
REMARK  135  A    between atoms: _322  and  _323
REMARK  136  A    between atoms: _322  and  _325
REMARK  137  A    between atoms: _325  and  _326
REMARK  138  A    between atoms: _331  and  _333
REMARK  139  A    between atoms: _333  and  _334
REMARK  140  A    between atoms: _333  and  _336
REMARK  141  A    between atoms: _336  and  _337
REMARK  142  A    between atoms: _337  and  _338
REMARK  143  A    between atoms: _340  and  _342
REMARK  144  A    between atoms: _342  and  _343
REMARK  145  A    between atoms: _342  and  _345
REMARK  146  A    between atoms: _345  and  _346
REMARK  147  A    between atoms: _346  and  _347
REMARK  148  A    between atoms: _347  and  _349
REMARK  149  A    between atoms: _349  and  MN_386
REMARK  150  A    between atoms: _350  and  _352
REMARK  151  A    between atoms: _352  and  _353
REMARK  152  A    between atoms: _352  and  _355
REMARK  153  A    between atoms: _355  and  _356
REMARK  154  A    between atoms: _358  and  _360
REMARK  155  A    between atoms: _360  and  _361
REMARK  156  A    between atoms: _360  and  _363
REMARK  157  A    between atoms: _363  and  _364
REMARK  158  A    between atoms: _367  and  _369
REMARK  159  A    between atoms: _369  and  _370
REMARK  160  A    between atoms: _369  and  _372
REMARK  161  A    between atoms: _372  and  _373
REMARK  162  A    between atoms: _373  and  _375
REMARK  163  A    between atoms: _375  and  MN_386
REMARK  164  A    between atoms: _376  and  _378
REMARK  165  A    between atoms: _378  and  _379
REMARK  166  A    between atoms: _378  and  _381
REMARK  167  A    between atoms: _381  and  _382
REMARK  168  A    between atoms: _382  and  _383
REMARK                            x       y       z     vdW  Elec       q    Type
REMARK                         _______ _______ _______ _____ _____    ______ ____
ROOT
ATOM      1  CA  MET A   1      53.661 -18.927  -0.471  0.00  0.00    +0.134 C 
ENDROOT
BRANCH   1   2
ATOM      2  N   MET A   1      55.060 -18.851  -0.834  0.00  0.00    -0.239 NA
ATOM      3  H   MET A   1      55.531 -19.710  -1.183  0.00  0.00    +0.142 HD
ENDBRANCH   1   2
BRANCH   1   4
ATOM      4  C   MET A   1      53.528 -19.978   0.634  0.00  0.00    +0.224 C 
ATOM      5  O   MET A   1      54.254 -20.976   0.624  0.00  0.00    -0.287 OA
ENDBRANCH   1   4
BRANCH   1   6
ATOM      6  CB  MET A   1      52.826 -19.275  -1.700  0.00  0.00    +0.037 C 
BRANCH   6   7
ATOM      7  CG  MET A   1      51.316 -19.291  -1.507  0.00  0.00    +0.059 C 
BRANCH   7   8
ATOM      8  SD  MET A   1      50.411 -19.449  -3.088  0.00  0.00    -0.139 S 
ATOM      9  CE  MET A   1      51.702 -18.943  -4.216  0.00  0.00    +0.069 C 
ENDBRANCH   7   8
ENDBRANCH   6   7
ENDBRANCH   1   6
TORSDOF 5
REMARK  Name = ../refined-set-2016/4umb/4umb_pocket.pdb
REMARK  168 active torsions:
REMARK  status: ('A' for Active; 'I' for Inactive)
REMARK    1  A    between atoms: _1  and  _3
REMARK    2  A    between atoms: _3  and  _4
REMARK    3  A    between atoms: _3  and  _6
REMARK    4  A    between atoms: _6  and  _7
REMARK    5  A    between atoms: _11  and  _12
REMARK    6  A    between atoms: _17  and  _19
REMARK    7  A    between atoms: _19  and  _20
REMARK    8  A    between atoms: _19  and  _22
REMARK    9  A    between atoms: _22  and  _23
REMARK   10  A    between atoms: _23  and  MN_386
REMARK   11  A    between atoms: _24  and  _26
REMARK   12  A    between atoms: _26  and  _27
REMARK   13  A    between atoms: _26  and  _29
REMARK   14  A    between atoms: _29  and  _30
REMARK   15  A    between atoms: _32  and  _34
REMARK   16  A    between atoms: _34  and  _35
REMARK   17  A    between atoms: _34  and  _37
REMARK   18  A    between atoms: _37  and  _38
REMARK   19  A    between atoms: _38  and  _39
REMARK   20  A    between atoms: _39  and  _40
REMARK   21  A    between atoms: _49  and  _51
REMARK   22  A    between atoms: _51  and  _52
REMARK   23  A    between atoms: _51  and  _54
REMARK   24  A    between atoms: _54  and  _55
REMARK   25  A    between atoms: _60  and  _61
REMARK   26  A    between atoms: _63  and  _65
REMARK   27  A    between atoms: _65  and  _66
REMARK   28  A    between atoms: _65  and  _68
REMARK   29  A    between atoms: _68  and  _69
REMARK   30  A    between atoms: _69  and  _70
REMARK   31  A    between atoms: _73  and  _75
REMARK   32  A    between atoms: _75  and  _76
REMARK   33  A    between atoms: _75  and  _78
REMARK   34  A    between atoms: _78  and  _79
REMARK   35  A    between atoms: _79  and  _80
REMARK   36  A    between atoms: _80  and  _81
REMARK   37  A    between atoms: _81  and  _82
REMARK   38  A    between atoms: _87  and  _88
REMARK   39  A    between atoms: _93  and  _95
REMARK   40  A    between atoms: _95  and  _96
REMARK   41  A    between atoms: _95  and  _98
REMARK   42  A    between atoms: _98  and  _99
REMARK   43  A    between atoms: _99  and  _100
REMARK   44  A    between atoms: _100  and  _101
REMARK   45  A    between atoms: _110  and  _112
REMARK   46  A    between atoms: _112  and  _113
REMARK   47  A    between atoms: _112  and  _115
REMARK   48  A    between atoms: _115  and  _116
REMARK   49  A    between atoms: _119  and  _121
REMARK   50  A    between atoms: _121  and  _122
REMARK   51  A    between atoms: _121  and  _124
REMARK   52  A    between atoms: _124  and  _125
REMARK   53  A    between atoms: _128  and  _130
REMARK   54  A    between atoms: _130  and  _131
REMARK   55  A    between atoms: _130  and  _133
REMARK   56  A    between atoms: _133  and  _134
REMARK   57  A    between atoms: _134  and  _135
REMARK   58  A    between atoms: _138  and  _140
REMARK   59  A    between atoms: _140  and  _141
REMARK   60  A    between atoms: _140  and  _143
REMARK   61  A    between atoms: _143  and  _144
REMARK   62  A    between atoms: _147  and  _149
REMARK   63  A    between atoms: _149  and  _150
REMARK   64  A    between atoms: _153  and  _155
REMARK   65  A    between atoms: _155  and  _156
REMARK   66  A    between atoms: _155  and  _158
REMARK   67  A    between atoms: _158  and  _159
REMARK   68  A    between atoms: _162  and  _164
REMARK   69  A    between atoms: _164  and  _165
REMARK   70  A    between atoms: _167  and  _169
REMARK   71  A    between atoms: _169  and  _170
REMARK   72  A    between atoms: _173  and  _175
REMARK   73  A    between atoms: _175  and  _176
REMARK   74  A    between atoms: _175  and  _178
REMARK   75  A    between atoms: _178  and  _179
REMARK   76  A    between atoms: _179  and  _180
REMARK   77  A    between atoms: _180  and  _181
REMARK   78  A    between atoms: _190  and  _192
REMARK   79  A    between atoms: _192  and  _193
REMARK   80  A    between atoms: _192  and  _195
REMARK   81  A    between atoms: _195  and  _196
REMARK   82  A    between atoms: _199  and  _201
REMARK   83  A    between atoms: _201  and  _202
REMARK   84  A    between atoms: _201  and  _204
REMARK   85  A    between atoms: _204  and  _205
REMARK   86  A    between atoms: _208  and  _210
REMARK   87  A    between atoms: _210  and  _211
REMARK   88  A    between atoms: _210  and  _213
REMARK   89  A    between atoms: _213  and  _214
REMARK   90  A    between atoms: _214  and  _215
REMARK   91  A    between atoms: _215  and  _216
REMARK   92  A    between atoms: _216  and  _217
REMARK   93  A    between atoms: _221  and  _223
REMARK   94  A    between atoms: _223  and  _224
REMARK   95  A    between atoms: _223  and  _226
REMARK   96  A    between atoms: _226  and  _227
REMARK   97  A    between atoms: _232  and  _234
REMARK   98  A    between atoms: _234  and  _235
REMARK   99  A    between atoms: _237  and  _239
REMARK  100  A    between atoms: _239  and  _240
REMARK  101  A    between atoms: _239  and  _242
REMARK  102  A    between atoms: _242  and  _243
REMARK  103  A    between atoms: _246  and  _248
REMARK  104  A    between atoms: _248  and  _249
REMARK  105  A    between atoms: _248  and  _251
REMARK  106  A    between atoms: _251  and  _252
REMARK  107  A    between atoms: _255  and  _257
REMARK  108  A    between atoms: _257  and  _258
REMARK  109  A    between atoms: _257  and  _260
REMARK  110  A    between atoms: _260  and  _261
REMARK  111  A    between atoms: _264  and  _266
REMARK  112  A    between atoms: _266  and  _267
REMARK  113  A    between atoms: _266  and  _269
REMARK  114  A    between atoms: _269  and  _270
REMARK  115  A    between atoms: _270  and  _271
REMARK  116  A    between atoms: _271  and  _272
REMARK  117  A    between atoms: _281  and  _283
REMARK  118  A    between atoms: _283  and  _284
REMARK  119  A    between atoms: _286  and  _288
REMARK  120  A    between atoms: _288  and  _289
REMARK  121  A    between atoms: _288  and  _291
REMARK  122  A    between atoms: _291  and  _292
REMARK  123  A    between atoms: _295  and  _297
REMARK  124  A    between atoms: _297  and  _298
REMARK  125  A    between atoms: _297  and  _300
REMARK  126  A    between atoms: _300  and  _301
REMARK  127  A    between atoms: _303  and  _305
REMARK  128  A    between atoms: _305  and  _306
REMARK  129  A    between atoms: _305  and  _308
REMARK  130  A    between atoms: _308  and  _309
REMARK  131  A    between atoms: _313  and  MN_386
REMARK  132  A    between atoms: _314  and  _316
REMARK  133  A    between atoms: _316  and  _317
REMARK  134  A    between atoms: _320  and  _322
REMARK  135  A    between atoms: _322  and  _323
REMARK  136  A    between atoms: _322  and  _325
REMARK  137  A    between atoms: _325  and  _326
REMARK  138  A    between atoms: _331  and  _333
REMARK  139  A    between atoms: _333  and  _334
REMARK  140  A    between atoms: _333  and  _336
REMARK  141  A    between atoms: _336  and  _337
REMARK  142  A    between atoms: _337  and  _338
REMARK  143  A    between atoms: _340  and  _342
REMARK  144  A    between atoms: _342  and  _343
REMARK  145  A    between atoms: _342  and  _345
REMARK  146  A    between atoms: _345  and  _346
REMARK  147  A    between atoms: _346  and  _347
REMARK  148  A    between atoms: _347  and  _349
REMARK  149  A    between atoms: _349  and  MN_386
REMARK  150  A    between atoms: _350  and  _352
REMARK  151  A    between atoms: _352  and  _353
REMARK  152  A    between atoms: _352  and  _355
REMARK  153  A    between atoms: _355  and  _356
REMARK  154  A    between atoms: _358  and  _360
REMARK  155  A    between atoms: _360  and  _361
REMARK  156  A    between atoms: _360  and  _363
REMARK  157  A    between atoms: _363  and  _364
REMARK  158  A    between atoms: _367  and  _369
REMARK  159  A    between atoms: _369  and  _370
REMARK  160  A    between atoms: _369  and  _372
REMARK  161  A    between atoms: _372  and  _373
REMARK  162  A    between atoms: _373  and  _375
REMARK  163  A    between atoms: _375  and  MN_386
REMARK  164  A    between atoms: _376  and  _378
REMARK  165  A    between atoms: _378  and  _379
REMARK  166  A    between atoms: _378  and  _381
REMARK  167  A    between atoms: _381  and  _382
REMARK  168  A    between atoms: _382  and  _383
REMARK                            x       y       z     vdW  Elec       q    Type
REMARK                         _______ _______ _______ _____ _____    ______ ____
ROOT
ATOM      1  CA  SER A   1      40.676 -24.471   7.718  0.00  0.00    +0.163 C 
ENDROOT
BRANCH   1   2
ATOM      2  N   SER A   1      41.060 -24.447   9.134  0.00  0.00    -0.237 NA
ATOM      3  H   SER A   1      42.040 -24.686   9.388  0.00  0.00    +0.142 HD
ENDBRANCH   1   2
BRANCH   1   4
ATOM      4  CB  SER A   1      39.574 -25.493   7.404  0.00  0.00    +0.227 C 
ATOM      5  OG  SER A   1      39.556 -26.583   7.966  0.00  0.00    -0.287 OA
ENDBRANCH   1   4
BRANCH   1   6
ATOM      6  C   SER A   1      41.882 -24.780   6.840  0.00  0.00    +0.162 C 
BRANCH   6   7
ATOM      7  O   SER A   1      41.509 -24.859   5.458  0.00  0.00    -0.380 OA
ATOM      8  H   SER A   1      42.310 -25.060   4.912  0.00  0.00    +0.211 HD
ENDBRANCH   6   7
ENDBRANCH   1   6
TORSDOF 4
REMARK  Name = ../refined-set-2016/4umb/4umb_pocket.pdb
REMARK  168 active torsions:
REMARK  status: ('A' for Active; 'I' for Inactive)
REMARK    1  A    between atoms: _1  and  _3
REMARK    2  A    between atoms: _3  and  _4
REMARK    3  A    between atoms: _3  and  _6
REMARK    4  A    between atoms: _6  and  _7
REMARK    5  A    between atoms: _11  and  _12
REMARK    6  A    between atoms: _17  and  _19
REMARK    7  A    between atoms: _19  and  _20
REMARK    8  A    between atoms: _19  and  _22
REMARK    9  A    between atoms: _22  and  _23
REMARK   10  A    between atoms: _23  and  MN_386
REMARK   11  A    between atoms: _24  and  _26
REMARK   12  A    between atoms: _26  and  _27
REMARK   13  A    between atoms: _26  and  _29
REMARK   14  A    between atoms: _29  and  _30
REMARK   15  A    between atoms: _32  and  _34
REMARK   16  A    between atoms: _34  and  _35
REMARK   17  A    between atoms: _34  and  _37
REMARK   18  A    between atoms: _37  and  _38
REMARK   19  A    between atoms: _38  and  _39
REMARK   20  A    between atoms: _39  and  _40
REMARK   21  A    between atoms: _49  and  _51
REMARK   22  A    between atoms: _51  and  _52
REMARK   23  A    between atoms: _51  and  _54
REMARK   24  A    between atoms: _54  and  _55
REMARK   25  A    between atoms: _60  and  _61
REMARK   26  A    between atoms: _63  and  _65
REMARK   27  A    between atoms: _65  and  _66
REMARK   28  A    between atoms: _65  and  _68
REMARK   29  A    between atoms: _68  and  _69
REMARK   30  A    between atoms: _69  and  _70
REMARK   31  A    between atoms: _73  and  _75
REMARK   32  A    between atoms: _75  and  _76
REMARK   33  A    between atoms: _75  and  _78
REMARK   34  A    between atoms: _78  and  _79
REMARK   35  A    between atoms: _79  and  _80
REMARK   36  A    between atoms: _80  and  _81
REMARK   37  A    between atoms: _81  and  _82
REMARK   38  A    between atoms: _87  and  _88
REMARK   39  A    between atoms: _93  and  _95
REMARK   40  A    between atoms: _95  and  _96
REMARK   41  A    between atoms: _95  and  _98
REMARK   42  A    between atoms: _98  and  _99
REMARK   43  A    between atoms: _99  and  _100
REMARK   44  A    between atoms: _100  and  _101
REMARK   45  A    between atoms: _110  and  _112
REMARK   46  A    between atoms: _112  and  _113
REMARK   47  A    between atoms: _112  and  _115
REMARK   48  A    between atoms: _115  and  _116
REMARK   49  A    between atoms: _119  and  _121
REMARK   50  A    between atoms: _121  and  _122
REMARK   51  A    between atoms: _121  and  _124
REMARK   52  A    between atoms: _124  and  _125
REMARK   53  A    between atoms: _128  and  _130
REMARK   54  A    between atoms: _130  and  _131
REMARK   55  A    between atoms: _130  and  _133
REMARK   56  A    between atoms: _133  and  _134
REMARK   57  A    between atoms: _134  and  _135
REMARK   58  A    between atoms: _138  and  _140
REMARK   59  A    between atoms: _140  and  _141
REMARK   60  A    between atoms: _140  and  _143
REMARK   61  A    between atoms: _143  and  _144
REMARK   62  A    between atoms: _147  and  _149
REMARK   63  A    between atoms: _149  and  _150
REMARK   64  A    between atoms: _153  and  _155
REMARK   65  A    between atoms: _155  and  _156
REMARK   66  A    between atoms: _155  and  _158
REMARK   67  A    between atoms: _158  and  _159
REMARK   68  A    between atoms: _162  and  _164
REMARK   69  A    between atoms: _164  and  _165
REMARK   70  A    between atoms: _167  and  _169
REMARK   71  A    between atoms: _169  and  _170
REMARK   72  A    between atoms: _173  and  _175
REMARK   73  A    between atoms: _175  and  _176
REMARK   74  A    between atoms: _175  and  _178
REMARK   75  A    between atoms: _178  and  _179
REMARK   76  A    between atoms: _179  and  _180
REMARK   77  A    between atoms: _180  and  _181
REMARK   78  A    between atoms: _190  and  _192
REMARK   79  A    between atoms: _192  and  _193
REMARK   80  A    between atoms: _192  and  _195
REMARK   81  A    between atoms: _195  and  _196
REMARK   82  A    between atoms: _199  and  _201
REMARK   83  A    between atoms: _201  and  _202
REMARK   84  A    between atoms: _201  and  _204
REMARK   85  A    between atoms: _204  and  _205
REMARK   86  A    between atoms: _208  and  _210
REMARK   87  A    between atoms: _210  and  _211
REMARK   88  A    between atoms: _210  and  _213
REMARK   89  A    between atoms: _213  and  _214
REMARK   90  A    between atoms: _214  and  _215
REMARK   91  A    between atoms: _215  and  _216
REMARK   92  A    between atoms: _216  and  _217
REMARK   93  A    between atoms: _221  and  _223
REMARK   94  A    between atoms: _223  and  _224
REMARK   95  A    between atoms: _223  and  _226
REMARK   96  A    between atoms: _226  and  _227
REMARK   97  A    between atoms: _232  and  _234
REMARK   98  A    between atoms: _234  and  _235
REMARK   99  A    between atoms: _237  and  _239
REMARK  100  A    between atoms: _239  and  _240
REMARK  101  A    between atoms: _239  and  _242
REMARK  102  A    between atoms: _242  and  _243
REMARK  103  A    between atoms: _246  and  _248
REMARK  104  A    between atoms: _248  and  _249
REMARK  105  A    between atoms: _248  and  _251
REMARK  106  A    between atoms: _251  and  _252
REMARK  107  A    between atoms: _255  and  _257
REMARK  108  A    between atoms: _257  and  _258
REMARK  109  A    between atoms: _257  and  _260
REMARK  110  A    between atoms: _260  and  _261
REMARK  111  A    between atoms: _264  and  _266
REMARK  112  A    between atoms: _266  and  _267
REMARK  113  A    between atoms: _266  and  _269
REMARK  114  A    between atoms: _269  and  _270
REMARK  115  A    between atoms: _270  and  _271
REMARK  116  A    between atoms: _271  and  _272
REMARK  117  A    between atoms: _281  and  _283
REMARK  118  A    between atoms: _283  and  _284
REMARK  119  A    between atoms: _286  and  _288
REMARK  120  A    between atoms: _288  and  _289
REMARK  121  A    between atoms: _288  and  _291
REMARK  122  A    between atoms: _291  and  _292
REMARK  123  A    between atoms: _295  and  _297
REMARK  124  A    between atoms: _297  and  _298
REMARK  125  A    between atoms: _297  and  _300
REMARK  126  A    between atoms: _300  and  _301
REMARK  127  A    between atoms: _303  and  _305
REMARK  128  A    between atoms: _305  and  _306
REMARK  129  A    between atoms: _305  and  _308
REMARK  130  A    between atoms: _308  and  _309
REMARK  131  A    between atoms: _313  and  MN_386
REMARK  132  A    between atoms: _314  and  _316
REMARK  133  A    between atoms: _316  and  _317
REMARK  134  A    between atoms: _320  and  _322
REMARK  135  A    between atoms: _322  and  _323
REMARK  136  A    between atoms: _322  and  _325
REMARK  137  A    between atoms: _325  and  _326
REMARK  138  A    between atoms: _331  and  _333
REMARK  139  A    between atoms: _333  and  _334
REMARK  140  A    between atoms: _333  and  _336
REMARK  141  A    between atoms: _336  and  _337
REMARK  142  A    between atoms: _337  and  _338
REMARK  143  A    between atoms: _340  and  _342
REMARK  144  A    between atoms: _342  and  _343
REMARK  145  A    between atoms: _342  and  _345
REMARK  146  A    between atoms: _345  and  _346
REMARK  147  A    between atoms: _346  and  _347
REMARK  148  A    between atoms: _347  and  _349
REMARK  149  A    between atoms: _349  and  MN_386
REMARK  150  A    between atoms: _350  and  _352
REMARK  151  A    between atoms: _352  and  _353
REMARK  152  A    between atoms: _352  and  _355
REMARK  153  A    between atoms: _355  and  _356
REMARK  154  A    between atoms: _358  and  _360
REMARK  155  A    between atoms: _360  and  _361
REMARK  156  A    between atoms: _360  and  _363
REMARK  157  A    between atoms: _363  and  _364
REMARK  158  A    between atoms: _367  and  _369
REMARK  159  A    between atoms: _369  and  _370
REMARK  160  A    between atoms: _369  and  _372
REMARK  161  A    between atoms: _372  and  _373
REMARK  162  A    between atoms: _373  and  _375
REMARK  163  A    between atoms: _375  and  MN_386
REMARK  164  A    between atoms: _376  and  _378
REMARK  165  A    between atoms: _378  and  _379
REMARK  166  A    between atoms: _378  and  _381
REMARK  167  A    between atoms: _381  and  _382
REMARK  168  A    between atoms: _382  and  _383
REMARK                            x       y       z     vdW  Elec       q    Type
REMARK                         _______ _______ _______ _____ _____    ______ ____
ROOT
ATOM      1  CA  GLU A   1      40.388 -28.139 -15.824  0.00  0.00    +0.134 C 
ENDROOT
BRANCH   1   2
ATOM      2  N   GLU A   1      40.138 -28.121 -17.283  0.00  0.00    -0.239 NA
ATOM      3  H   GLU A   1      40.913 -27.842 -17.918  0.00  0.00    +0.142 HD
ENDBRANCH   1   2
BRANCH   1   4
ATOM      4  C   GLU A   1      39.851 -26.870 -15.115  0.00  0.00    +0.224 C 
ATOM      5  O   GLU A   1      39.882 -26.780 -13.898  0.00  0.00    -0.287 OA
ENDBRANCH   1   4
BRANCH   1   6
ATOM      6  CB  GLU A   1      41.901 -28.302 -15.552  0.00  0.00    +0.037 C 
BRANCH   6   7
ATOM      7  CG  GLU A   1      42.230 -28.966 -14.204  0.00  0.00    +0.116 C 
BRANCH   7   8
ATOM      8  CD  GLU A   1      43.709 -29.161 -13.946  0.00  0.00    +0.365 C 
ATOM      9  OE2 GLU A   1      44.030 -29.768 -12.926  0.00  0.00    -0.246 OA
ATOM     10  OE1 GLU A   1      44.555 -28.715 -14.754  0.00  0.00    -0.246 OA
ENDBRANCH   7   8
ENDBRANCH   6   7
ENDBRANCH   1   6
TORSDOF 5
REMARK  Name = ../refined-set-2016/4umb/4umb_pocket.pdb
REMARK  168 active torsions:
REMARK  status: ('A' for Active; 'I' for Inactive)
REMARK    1  A    between atoms: _1  and  _3
REMARK    2  A    between atoms: _3  and  _4
REMARK    3  A    between atoms: _3  and  _6
REMARK    4  A    between atoms: _6  and  _7
REMARK    5  A    between atoms: _11  and  _12
REMARK    6  A    between atoms: _17  and  _19
REMARK    7  A    between atoms: _19  and  _20
REMARK    8  A    between atoms: _19  and  _22
REMARK    9  A    between atoms: _22  and  _23
REMARK   10  A    between atoms: _23  and  MN_386
REMARK   11  A    between atoms: _24  and  _26
REMARK   12  A    between atoms: _26  and  _27
REMARK   13  A    between atoms: _26  and  _29
REMARK   14  A    between atoms: _29  and  _30
REMARK   15  A    between atoms: _32  and  _34
REMARK   16  A    between atoms: _34  and  _35
REMARK   17  A    between atoms: _34  and  _37
REMARK   18  A    between atoms: _37  and  _38
REMARK   19  A    between atoms: _38  and  _39
REMARK   20  A    between atoms: _39  and  _40
REMARK   21  A    between atoms: _49  and  _51
REMARK   22  A    between atoms: _51  and  _52
REMARK   23  A    between atoms: _51  and  _54
REMARK   24  A    between atoms: _54  and  _55
REMARK   25  A    between atoms: _60  and  _61
REMARK   26  A    between atoms: _63  and  _65
REMARK   27  A    between atoms: _65  and  _66
REMARK   28  A    between atoms: _65  and  _68
REMARK   29  A    between atoms: _68  and  _69
REMARK   30  A    between atoms: _69  and  _70
REMARK   31  A    between atoms: _73  and  _75
REMARK   32  A    between atoms: _75  and  _76
REMARK   33  A    between atoms: _75  and  _78
REMARK   34  A    between atoms: _78  and  _79
REMARK   35  A    between atoms: _79  and  _80
REMARK   36  A    between atoms: _80  and  _81
REMARK   37  A    between atoms: _81  and  _82
REMARK   38  A    between atoms: _87  and  _88
REMARK   39  A    between atoms: _93  and  _95
REMARK   40  A    between atoms: _95  and  _96
REMARK   41  A    between atoms: _95  and  _98
REMARK   42  A    between atoms: _98  and  _99
REMARK   43  A    between atoms: _99  and  _100
REMARK   44  A    between atoms: _100  and  _101
REMARK   45  A    between atoms: _110  and  _112
REMARK   46  A    between atoms: _112  and  _113
REMARK   47  A    between atoms: _112  and  _115
REMARK   48  A    between atoms: _115  and  _116
REMARK   49  A    between atoms: _119  and  _121
REMARK   50  A    between atoms: _121  and  _122
REMARK   51  A    between atoms: _121  and  _124
REMARK   52  A    between atoms: _124  and  _125
REMARK   53  A    between atoms: _128  and  _130
REMARK   54  A    between atoms: _130  and  _131
REMARK   55  A    between atoms: _130  and  _133
REMARK   56  A    between atoms: _133  and  _134
REMARK   57  A    between atoms: _134  and  _135
REMARK   58  A    between atoms: _138  and  _140
REMARK   59  A    between atoms: _140  and  _141
REMARK   60  A    between atoms: _140  and  _143
REMARK   61  A    between atoms: _143  and  _144
REMARK   62  A    between atoms: _147  and  _149
REMARK   63  A    between atoms: _149  and  _150
REMARK   64  A    between atoms: _153  and  _155
REMARK   65  A    between atoms: _155  and  _156
REMARK   66  A    between atoms: _155  and  _158
REMARK   67  A    between atoms: _158  and  _159
REMARK   68  A    between atoms: _162  and  _164
REMARK   69  A    between atoms: _164  and  _165
REMARK   70  A    between atoms: _167  and  _169
REMARK   71  A    between atoms: _169  and  _170
REMARK   72  A    between atoms: _173  and  _175
REMARK   73  A    between atoms: _175  and  _176
REMARK   74  A    between atoms: _175  and  _178
REMARK   75  A    between atoms: _178  and  _179
REMARK   76  A    between atoms: _179  and  _180
REMARK   77  A    between atoms: _180  and  _181
REMARK   78  A    between atoms: _190  and  _192
REMARK   79  A    between atoms: _192  and  _193
REMARK   80  A    between atoms: _192  and  _195
REMARK   81  A    between atoms: _195  and  _196
REMARK   82  A    between atoms: _199  and  _201
REMARK   83  A    between atoms: _201  and  _202
REMARK   84  A    between atoms: _201  and  _204
REMARK   85  A    between atoms: _204  and  _205
REMARK   86  A    between atoms: _208  and  _210
REMARK   87  A    between atoms: _210  and  _211
REMARK   88  A    between atoms: _210  and  _213
REMARK   89  A    between atoms: _213  and  _214
REMARK   90  A    between atoms: _214  and  _215
REMARK   91  A    between atoms: _215  and  _216
REMARK   92  A    between atoms: _216  and  _217
REMARK   93  A    between atoms: _221  and  _223
REMARK   94  A    between atoms: _223  and  _224
REMARK   95  A    between atoms: _223  and  _226
REMARK   96  A    between atoms: _226  and  _227
REMARK   97  A    between atoms: _232  and  _234
REMARK   98  A    between atoms: _234  and  _235
REMARK   99  A    between atoms: _237  and  _239
REMARK  100  A    between atoms: _239  and  _240
REMARK  101  A    between atoms: _239  and  _242
REMARK  102  A    between atoms: _242  and  _243
REMARK  103  A    between atoms: _246  and  _248
REMARK  104  A    between atoms: _248  and  _249
REMARK  105  A    between atoms: _248  and  _251
REMARK  106  A    between atoms: _251  and  _252
REMARK  107  A    between atoms: _255  and  _257
REMARK  108  A    between atoms: _257  and  _258
REMARK  109  A    between atoms: _257  and  _260
REMARK  110  A    between atoms: _260  and  _261
REMARK  111  A    between atoms: _264  and  _266
REMARK  112  A    between atoms: _266  and  _267
REMARK  113  A    between atoms: _266  and  _269
REMARK  114  A    between atoms: _269  and  _270
REMARK  115  A    between atoms: _270  and  _271
REMARK  116  A    between atoms: _271  and  _272
REMARK  117  A    between atoms: _281  and  _283
REMARK  118  A    between atoms: _283  and  _284
REMARK  119  A    between atoms: _286  and  _288
REMARK  120  A    between atoms: _288  and  _289
REMARK  121  A    between atoms: _288  and  _291
REMARK  122  A    between atoms: _291  and  _292
REMARK  123  A    between atoms: _295  and  _297
REMARK  124  A    between atoms: _297  and  _298
REMARK  125  A    between atoms: _297  and  _300
REMARK  126  A    between atoms: _300  and  _301
REMARK  127  A    between atoms: _303  and  _305
REMARK  128  A    between atoms: _305  and  _306
REMARK  129  A    between atoms: _305  and  _308
REMARK  130  A    between atoms: _308  and  _309
REMARK  131  A    between atoms: _313  and  MN_386
REMARK  132  A    between atoms: _314  and  _316
REMARK  133  A    between atoms: _316  and  _317
REMARK  134  A    between atoms: _320  and  _322
REMARK  135  A    between atoms: _322  and  _323
REMARK  136  A    between atoms: _322  and  _325
REMARK  137  A    between atoms: _325  and  _326
REMARK  138  A    between atoms: _331  and  _333
REMARK  139  A    between atoms: _333  and  _334
REMARK  140  A    between atoms: _333  and  _336
REMARK  141  A    between atoms: _336  and  _337
REMARK  142  A    between atoms: _337  and  _338
REMARK  143  A    between atoms: _340  and  _342
REMARK  144  A    between atoms: _342  and  _343
REMARK  145  A    between atoms: _342  and  _345
REMARK  146  A    between atoms: _345  and  _346
REMARK  147  A    between atoms: _346  and  _347
REMARK  148  A    between atoms: _347  and  _349
REMARK  149  A    between atoms: _349  and  MN_386
REMARK  150  A    between atoms: _350  and  _352
REMARK  151  A    between atoms: _352  and  _353
REMARK  152  A    between atoms: _352  and  _355
REMARK  153  A    between atoms: _355  and  _356
REMARK  154  A    between atoms: _358  and  _360
REMARK  155  A    between atoms: _360  and  _361
REMARK  156  A    between atoms: _360  and  _363
REMARK  157  A    between atoms: _363  and  _364
REMARK  158  A    between atoms: _367  and  _369
REMARK  159  A    between atoms: _369  and  _370
REMARK  160  A    between atoms: _369  and  _372
REMARK  161  A    between atoms: _372  and  _373
REMARK  162  A    between atoms: _373  and  _375
REMARK  163  A    between atoms: _375  and  MN_386
REMARK  164  A    between atoms: _376  and  _378
REMARK  165  A    between atoms: _378  and  _379
REMARK  166  A    between atoms: _378  and  _381
REMARK  167  A    between atoms: _381  and  _382
REMARK  168  A    between atoms: _382  and  _383
REMARK                            x       y       z     vdW  Elec       q    Type
REMARK                         _______ _______ _______ _____ _____    ______ ____
ROOT
ATOM      1  O   HOH     1      47.191 -19.985  -4.792  0.00  0.00    +0.000 OA
ENDROOT
TORSDOF 0
REMARK  Name = ../refined-set-2016/4umb/4umb_pocket.pdb
REMARK  168 active torsions:
REMARK  status: ('A' for Active; 'I' for Inactive)
REMARK    1  A    between atoms: _1  and  _3
REMARK    2  A    between atoms: _3  and  _4
REMARK    3  A    between atoms: _3  and  _6
REMARK    4  A    between atoms: _6  and  _7
REMARK    5  A    between atoms: _11  and  _12
REMARK    6  A    between atoms: _17  and  _19
REMARK    7  A    between atoms: _19  and  _20
REMARK    8  A    between atoms: _19  and  _22
REMARK    9  A    between atoms: _22  and  _23
REMARK   10  A    between atoms: _23  and  MN_386
REMARK   11  A    between atoms: _24  and  _26
REMARK   12  A    between atoms: _26  and  _27
REMARK   13  A    between atoms: _26  and  _29
REMARK   14  A    between atoms: _29  and  _30
REMARK   15  A    between atoms: _32  and  _34
REMARK   16  A    between atoms: _34  and  _35
REMARK   17  A    between atoms: _34  and  _37
REMARK   18  A    between atoms: _37  and  _38
REMARK   19  A    between atoms: _38  and  _39
REMARK   20  A    between atoms: _39  and  _40
REMARK   21  A    between atoms: _49  and  _51
REMARK   22  A    between atoms: _51  and  _52
REMARK   23  A    between atoms: _51  and  _54
REMARK   24  A    between atoms: _54  and  _55
REMARK   25  A    between atoms: _60  and  _61
REMARK   26  A    between atoms: _63  and  _65
REMARK   27  A    between atoms: _65  and  _66
REMARK   28  A    between atoms: _65  and  _68
REMARK   29  A    between atoms: _68  and  _69
REMARK   30  A    between atoms: _69  and  _70
REMARK   31  A    between atoms: _73  and  _75
REMARK   32  A    between atoms: _75  and  _76
REMARK   33  A    between atoms: _75  and  _78
REMARK   34  A    between atoms: _78  and  _79
REMARK   35  A    between atoms: _79  and  _80
REMARK   36  A    between atoms: _80  and  _81
REMARK   37  A    between atoms: _81  and  _82
REMARK   38  A    between atoms: _87  and  _88
REMARK   39  A    between atoms: _93  and  _95
REMARK   40  A    between atoms: _95  and  _96
REMARK   41  A    between atoms: _95  and  _98
REMARK   42  A    between atoms: _98  and  _99
REMARK   43  A    between atoms: _99  and  _100
REMARK   44  A    between atoms: _100  and  _101
REMARK   45  A    between atoms: _110  and  _112
REMARK   46  A    between atoms: _112  and  _113
REMARK   47  A    between atoms: _112  and  _115
REMARK   48  A    between atoms: _115  and  _116
REMARK   49  A    between atoms: _119  and  _121
REMARK   50  A    between atoms: _121  and  _122
REMARK   51  A    between atoms: _121  and  _124
REMARK   52  A    between atoms: _124  and  _125
REMARK   53  A    between atoms: _128  and  _130
REMARK   54  A    between atoms: _130  and  _131
REMARK   55  A    between atoms: _130  and  _133
REMARK   56  A    between atoms: _133  and  _134
REMARK   57  A    between atoms: _134  and  _135
REMARK   58  A    between atoms: _138  and  _140
REMARK   59  A    between atoms: _140  and  _141
REMARK   60  A    between atoms: _140  and  _143
REMARK   61  A    between atoms: _143  and  _144
REMARK   62  A    between atoms: _147  and  _149
REMARK   63  A    between atoms: _149  and  _150
REMARK   64  A    between atoms: _153  and  _155
REMARK   65  A    between atoms: _155  and  _156
REMARK   66  A    between atoms: _155  and  _158
REMARK   67  A    between atoms: _158  and  _159
REMARK   68  A    between atoms: _162  and  _164
REMARK   69  A    between atoms: _164  and  _165
REMARK   70  A    between atoms: _167  and  _169
REMARK   71  A    between atoms: _169  and  _170
REMARK   72  A    between atoms: _173  and  _175
REMARK   73  A    between atoms: _175  and  _176
REMARK   74  A    between atoms: _175  and  _178
REMARK   75  A    between atoms: _178  and  _179
REMARK   76  A    between atoms: _179  and  _180
REMARK   77  A    between atoms: _180  and  _181
REMARK   78  A    between atoms: _190  and  _192
REMARK   79  A    between atoms: _192  and  _193
REMARK   80  A    between atoms: _192  and  _195
REMARK   81  A    between atoms: _195  and  _196
REMARK   82  A    between atoms: _199  and  _201
REMARK   83  A    between atoms: _201  and  _202
REMARK   84  A    between atoms: _201  and  _204
REMARK   85  A    between atoms: _204  and  _205
REMARK   86  A    between atoms: _208  and  _210
REMARK   87  A    between atoms: _210  and  _211
REMARK   88  A    between atoms: _210  and  _213
REMARK   89  A    between atoms: _213  and  _214
REMARK   90  A    between atoms: _214  and  _215
REMARK   91  A    between atoms: _215  and  _216
REMARK   92  A    between atoms: _216  and  _217
REMARK   93  A    between atoms: _221  and  _223
REMARK   94  A    between atoms: _223  and  _224
REMARK   95  A    between atoms: _223  and  _226
REMARK   96  A    between atoms: _226  and  _227
REMARK   97  A    between atoms: _232  and  _234
REMARK   98  A    between atoms: _234  and  _235
REMARK   99  A    between atoms: _237  and  _239
REMARK  100  A    between atoms: _239  and  _240
REMARK  101  A    between atoms: _239  and  _242
REMARK  102  A    between atoms: _242  and  _243
REMARK  103  A    between atoms: _246  and  _248
REMARK  104  A    between atoms: _248  and  _249
REMARK  105  A    between atoms: _248  and  _251
REMARK  106  A    between atoms: _251  and  _252
REMARK  107  A    between atoms: _255  and  _257
REMARK  108  A    between atoms: _257  and  _258
REMARK  109  A    between atoms: _257  and  _260
REMARK  110  A    between atoms: _260  and  _261
REMARK  111  A    between atoms: _264  and  _266
REMARK  112  A    between atoms: _266  and  _267
REMARK  113  A    between atoms: _266  and  _269
REMARK  114  A    between atoms: _269  and  _270
REMARK  115  A    between atoms: _270  and  _271
REMARK  116  A    between atoms: _271  and  _272
REMARK  117  A    between atoms: _281  and  _283
REMARK  118  A    between atoms: _283  and  _284
REMARK  119  A    between atoms: _286  and  _288
REMARK  120  A    between atoms: _288  and  _289
REMARK  121  A    between atoms: _288  and  _291
REMARK  122  A    between atoms: _291  and  _292
REMARK  123  A    between atoms: _295  and  _297
REMARK  124  A    between atoms: _297  and  _298
REMARK  125  A    between atoms: _297  and  _300
REMARK  126  A    between atoms: _300  and  _301
REMARK  127  A    between atoms: _303  and  _305
REMARK  128  A    between atoms: _305  and  _306
REMARK  129  A    between atoms: _305  and  _308
REMARK  130  A    between atoms: _308  and  _309
REMARK  131  A    between atoms: _313  and  MN_386
REMARK  132  A    between atoms: _314  and  _316
REMARK  133  A    between atoms: _316  and  _317
REMARK  134  A    between atoms: _320  and  _322
REMARK  135  A    between atoms: _322  and  _323
REMARK  136  A    between atoms: _322  and  _325
REMARK  137  A    between atoms: _325  and  _326
REMARK  138  A    between atoms: _331  and  _333
REMARK  139  A    between atoms: _333  and  _334
REMARK  140  A    between atoms: _333  and  _336
REMARK  141  A    between atoms: _336  and  _337
REMARK  142  A    between atoms: _337  and  _338
REMARK  143  A    between atoms: _340  and  _342
REMARK  144  A    between atoms: _342  and  _343
REMARK  145  A    between atoms: _342  and  _345
REMARK  146  A    between atoms: _345  and  _346
REMARK  147  A    between atoms: _346  and  _347
REMARK  148  A    between atoms: _347  and  _349
REMARK  149  A    between atoms: _349  and  MN_386
REMARK  150  A    between atoms: _350  and  _352
REMARK  151  A    between atoms: _352  and  _353
REMARK  152  A    between atoms: _352  and  _355
REMARK  153  A    between atoms: _355  and  _356
REMARK  154  A    between atoms: _358  and  _360
REMARK  155  A    between atoms: _360  and  _361
REMARK  156  A    between atoms: _360  and  _363
REMARK  157  A    between atoms: _363  and  _364
REMARK  158  A    between atoms: _367  and  _369
REMARK  159  A    between atoms: _369  and  _370
REMARK  160  A    between atoms: _369  and  _372
REMARK  161  A    between atoms: _372  and  _373
REMARK  162  A    between atoms: _373  and  _375
REMARK  163  A    between atoms: _375  and  MN_386
REMARK  164  A    between atoms: _376  and  _378
REMARK  165  A    between atoms: _378  and  _379
REMARK  166  A    between atoms: _378  and  _381
REMARK  167  A    between atoms: _381  and  _382
REMARK  168  A    between atoms: _382  and  _383
REMARK                            x       y       z     vdW  Elec       q    Type
REMARK                         _______ _______ _______ _____ _____    ______ ____
ROOT
ATOM      1  O   HOH     1      40.466 -16.830  -4.250  0.00  0.00    +0.000 OA
ENDROOT
TORSDOF 0
REMARK  Name = ../refined-set-2016/4umb/4umb_pocket.pdb
REMARK  168 active torsions:
REMARK  status: ('A' for Active; 'I' for Inactive)
REMARK    1  A    between atoms: _1  and  _3
REMARK    2  A    between atoms: _3  and  _4
REMARK    3  A    between atoms: _3  and  _6
REMARK    4  A    between atoms: _6  and  _7
REMARK    5  A    between atoms: _11  and  _12
REMARK    6  A    between atoms: _17  and  _19
REMARK    7  A    between atoms: _19  and  _20
REMARK    8  A    between atoms: _19  and  _22
REMARK    9  A    between atoms: _22  and  _23
REMARK   10  A    between atoms: _23  and  MN_386
REMARK   11  A    between atoms: _24  and  _26
REMARK   12  A    between atoms: _26  and  _27
REMARK   13  A    between atoms: _26  and  _29
REMARK   14  A    between atoms: _29  and  _30
REMARK   15  A    between atoms: _32  and  _34
REMARK   16  A    between atoms: _34  and  _35
REMARK   17  A    between atoms: _34  and  _37
REMARK   18  A    between atoms: _37  and  _38
REMARK   19  A    between atoms: _38  and  _39
REMARK   20  A    between atoms: _39  and  _40
REMARK   21  A    between atoms: _49  and  _51
REMARK   22  A    between atoms: _51  and  _52
REMARK   23  A    between atoms: _51  and  _54
REMARK   24  A    between atoms: _54  and  _55
REMARK   25  A    between atoms: _60  and  _61
REMARK   26  A    between atoms: _63  and  _65
REMARK   27  A    between atoms: _65  and  _66
REMARK   28  A    between atoms: _65  and  _68
REMARK   29  A    between atoms: _68  and  _69
REMARK   30  A    between atoms: _69  and  _70
REMARK   31  A    between atoms: _73  and  _75
REMARK   32  A    between atoms: _75  and  _76
REMARK   33  A    between atoms: _75  and  _78
REMARK   34  A    between atoms: _78  and  _79
REMARK   35  A    between atoms: _79  and  _80
REMARK   36  A    between atoms: _80  and  _81
REMARK   37  A    between atoms: _81  and  _82
REMARK   38  A    between atoms: _87  and  _88
REMARK   39  A    between atoms: _93  and  _95
REMARK   40  A    between atoms: _95  and  _96
REMARK   41  A    between atoms: _95  and  _98
REMARK   42  A    between atoms: _98  and  _99
REMARK   43  A    between atoms: _99  and  _100
REMARK   44  A    between atoms: _100  and  _101
REMARK   45  A    between atoms: _110  and  _112
REMARK   46  A    between atoms: _112  and  _113
REMARK   47  A    between atoms: _112  and  _115
REMARK   48  A    between atoms: _115  and  _116
REMARK   49  A    between atoms: _119  and  _121
REMARK   50  A    between atoms: _121  and  _122
REMARK   51  A    between atoms: _121  and  _124
REMARK   52  A    between atoms: _124  and  _125
REMARK   53  A    between atoms: _128  and  _130
REMARK   54  A    between atoms: _130  and  _131
REMARK   55  A    between atoms: _130  and  _133
REMARK   56  A    between atoms: _133  and  _134
REMARK   57  A    between atoms: _134  and  _135
REMARK   58  A    between atoms: _138  and  _140
REMARK   59  A    between atoms: _140  and  _141
REMARK   60  A    between atoms: _140  and  _143
REMARK   61  A    between atoms: _143  and  _144
REMARK   62  A    between atoms: _147  and  _149
REMARK   63  A    between atoms: _149  and  _150
REMARK   64  A    between atoms: _153  and  _155
REMARK   65  A    between atoms: _155  and  _156
REMARK   66  A    between atoms: _155  and  _158
REMARK   67  A    between atoms: _158  and  _159
REMARK   68  A    between atoms: _162  and  _164
REMARK   69  A    between atoms: _164  and  _165
REMARK   70  A    between atoms: _167  and  _169
REMARK   71  A    between atoms: _169  and  _170
REMARK   72  A    between atoms: _173  and  _175
REMARK   73  A    between atoms: _175  and  _176
REMARK   74  A    between atoms: _175  and  _178
REMARK   75  A    between atoms: _178  and  _179
REMARK   76  A    between atoms: _179  and  _180
REMARK   77  A    between atoms: _180  and  _181
REMARK   78  A    between atoms: _190  and  _192
REMARK   79  A    between atoms: _192  and  _193
REMARK   80  A    between atoms: _192  and  _195
REMARK   81  A    between atoms: _195  and  _196
REMARK   82  A    between atoms: _199  and  _201
REMARK   83  A    between atoms: _201  and  _202
REMARK   84  A    between atoms: _201  and  _204
REMARK   85  A    between atoms: _204  and  _205
REMARK   86  A    between atoms: _208  and  _210
REMARK   87  A    between atoms: _210  and  _211
REMARK   88  A    between atoms: _210  and  _213
REMARK   89  A    between atoms: _213  and  _214
REMARK   90  A    between atoms: _214  and  _215
REMARK   91  A    between atoms: _215  and  _216
REMARK   92  A    between atoms: _216  and  _217
REMARK   93  A    between atoms: _221  and  _223
REMARK   94  A    between atoms: _223  and  _224
REMARK   95  A    between atoms: _223  and  _226
REMARK   96  A    between atoms: _226  and  _227
REMARK   97  A    between atoms: _232  and  _234
REMARK   98  A    between atoms: _234  and  _235
REMARK   99  A    between atoms: _237  and  _239
REMARK  100  A    between atoms: _239  and  _240
REMARK  101  A    between atoms: _239  and  _242
REMARK  102  A    between atoms: _242  and  _243
REMARK  103  A    between atoms: _246  and  _248
REMARK  104  A    between atoms: _248  and  _249
REMARK  105  A    between atoms: _248  and  _251
REMARK  106  A    between atoms: _251  and  _252
REMARK  107  A    between atoms: _255  and  _257
REMARK  108  A    between atoms: _257  and  _258
REMARK  109  A    between atoms: _257  and  _260
REMARK  110  A    between atoms: _260  and  _261
REMARK  111  A    between atoms: _264  and  _266
REMARK  112  A    between atoms: _266  and  _267
REMARK  113  A    between atoms: _266  and  _269
REMARK  114  A    between atoms: _269  and  _270
REMARK  115  A    between atoms: _270  and  _271
REMARK  116  A    between atoms: _271  and  _272
REMARK  117  A    between atoms: _281  and  _283
REMARK  118  A    between atoms: _283  and  _284
REMARK  119  A    between atoms: _286  and  _288
REMARK  120  A    between atoms: _288  and  _289
REMARK  121  A    between atoms: _288  and  _291
REMARK  122  A    between atoms: _291  and  _292
REMARK  123  A    between atoms: _295  and  _297
REMARK  124  A    between atoms: _297  and  _298
REMARK  125  A    between atoms: _297  and  _300
REMARK  126  A    between atoms: _300  and  _301
REMARK  127  A    between atoms: _303  and  _305
REMARK  128  A    between atoms: _305  and  _306
REMARK  129  A    between atoms: _305  and  _308
REMARK  130  A    between atoms: _308  and  _309
REMARK  131  A    between atoms: _313  and  MN_386
REMARK  132  A    between atoms: _314  and  _316
REMARK  133  A    between atoms: _316  and  _317
REMARK  134  A    between atoms: _320  and  _322
REMARK  135  A    between atoms: _322  and  _323
REMARK  136  A    between atoms: _322  and  _325
REMARK  137  A    between atoms: _325  and  _326
REMARK  138  A    between atoms: _331  and  _333
REMARK  139  A    between atoms: _333  and  _334
REMARK  140  A    between atoms: _333  and  _336
REMARK  141  A    between atoms: _336  and  _337
REMARK  142  A    between atoms: _337  and  _338
REMARK  143  A    between atoms: _340  and  _342
REMARK  144  A    between atoms: _342  and  _343
REMARK  145  A    between atoms: _342  and  _345
REMARK  146  A    between atoms: _345  and  _346
REMARK  147  A    between atoms: _346  and  _347
REMARK  148  A    between atoms: _347  and  _349
REMARK  149  A    between atoms: _349  and  MN_386
REMARK  150  A    between atoms: _350  and  _352
REMARK  151  A    between atoms: _352  and  _353
REMARK  152  A    between atoms: _352  and  _355
REMARK  153  A    between atoms: _355  and  _356
REMARK  154  A    between atoms: _358  and  _360
REMARK  155  A    between atoms: _360  and  _361
REMARK  156  A    between atoms: _360  and  _363
REMARK  157  A    between atoms: _363  and  _364
REMARK  158  A    between atoms: _367  and  _369
REMARK  159  A    between atoms: _369  and  _370
REMARK  160  A    between atoms: _369  and  _372
REMARK  161  A    between atoms: _372  and  _373
REMARK  162  A    between atoms: _373  and  _375
REMARK  163  A    between atoms: _375  and  MN_386
REMARK  164  A    between atoms: _376  and  _378
REMARK  165  A    between atoms: _378  and  _379
REMARK  166  A    between atoms: _378  and  _381
REMARK  167  A    between atoms: _381  and  _382
REMARK  168  A    between atoms: _382  and  _383
REMARK                            x       y       z     vdW  Elec       q    Type
REMARK                         _______ _______ _______ _____ _____    ______ ____
ROOT
ATOM      1  O   HOH     1      41.932 -20.565  -4.594  0.00  0.00    +0.000 OA
ENDROOT
TORSDOF 0
REMARK  Name = ../refined-set-2016/4umb/4umb_pocket.pdb
REMARK  168 active torsions:
REMARK  status: ('A' for Active; 'I' for Inactive)
REMARK    1  A    between atoms: _1  and  _3
REMARK    2  A    between atoms: _3  and  _4
REMARK    3  A    between atoms: _3  and  _6
REMARK    4  A    between atoms: _6  and  _7
REMARK    5  A    between atoms: _11  and  _12
REMARK    6  A    between atoms: _17  and  _19
REMARK    7  A    between atoms: _19  and  _20
REMARK    8  A    between atoms: _19  and  _22
REMARK    9  A    between atoms: _22  and  _23
REMARK   10  A    between atoms: _23  and  MN_386
REMARK   11  A    between atoms: _24  and  _26
REMARK   12  A    between atoms: _26  and  _27
REMARK   13  A    between atoms: _26  and  _29
REMARK   14  A    between atoms: _29  and  _30
REMARK   15  A    between atoms: _32  and  _34
REMARK   16  A    between atoms: _34  and  _35
REMARK   17  A    between atoms: _34  and  _37
REMARK   18  A    between atoms: _37  and  _38
REMARK   19  A    between atoms: _38  and  _39
REMARK   20  A    between atoms: _39  and  _40
REMARK   21  A    between atoms: _49  and  _51
REMARK   22  A    between atoms: _51  and  _52
REMARK   23  A    between atoms: _51  and  _54
REMARK   24  A    between atoms: _54  and  _55
REMARK   25  A    between atoms: _60  and  _61
REMARK   26  A    between atoms: _63  and  _65
REMARK   27  A    between atoms: _65  and  _66
REMARK   28  A    between atoms: _65  and  _68
REMARK   29  A    between atoms: _68  and  _69
REMARK   30  A    between atoms: _69  and  _70
REMARK   31  A    between atoms: _73  and  _75
REMARK   32  A    between atoms: _75  and  _76
REMARK   33  A    between atoms: _75  and  _78
REMARK   34  A    between atoms: _78  and  _79
REMARK   35  A    between atoms: _79  and  _80
REMARK   36  A    between atoms: _80  and  _81
REMARK   37  A    between atoms: _81  and  _82
REMARK   38  A    between atoms: _87  and  _88
REMARK   39  A    between atoms: _93  and  _95
REMARK   40  A    between atoms: _95  and  _96
REMARK   41  A    between atoms: _95  and  _98
REMARK   42  A    between atoms: _98  and  _99
REMARK   43  A    between atoms: _99  and  _100
REMARK   44  A    between atoms: _100  and  _101
REMARK   45  A    between atoms: _110  and  _112
REMARK   46  A    between atoms: _112  and  _113
REMARK   47  A    between atoms: _112  and  _115
REMARK   48  A    between atoms: _115  and  _116
REMARK   49  A    between atoms: _119  and  _121
REMARK   50  A    between atoms: _121  and  _122
REMARK   51  A    between atoms: _121  and  _124
REMARK   52  A    between atoms: _124  and  _125
REMARK   53  A    between atoms: _128  and  _130
REMARK   54  A    between atoms: _130  and  _131
REMARK   55  A    between atoms: _130  and  _133
REMARK   56  A    between atoms: _133  and  _134
REMARK   57  A    between atoms: _134  and  _135
REMARK   58  A    between atoms: _138  and  _140
REMARK   59  A    between atoms: _140  and  _141
REMARK   60  A    between atoms: _140  and  _143
REMARK   61  A    between atoms: _143  and  _144
REMARK   62  A    between atoms: _147  and  _149
REMARK   63  A    between atoms: _149  and  _150
REMARK   64  A    between atoms: _153  and  _155
REMARK   65  A    between atoms: _155  and  _156
REMARK   66  A    between atoms: _155  and  _158
REMARK   67  A    between atoms: _158  and  _159
REMARK   68  A    between atoms: _162  and  _164
REMARK   69  A    between atoms: _164  and  _165
REMARK   70  A    between atoms: _167  and  _169
REMARK   71  A    between atoms: _169  and  _170
REMARK   72  A    between atoms: _173  and  _175
REMARK   73  A    between atoms: _175  and  _176
REMARK   74  A    between atoms: _175  and  _178
REMARK   75  A    between atoms: _178  and  _179
REMARK   76  A    between atoms: _179  and  _180
REMARK   77  A    between atoms: _180  and  _181
REMARK   78  A    between atoms: _190  and  _192
REMARK   79  A    between atoms: _192  and  _193
REMARK   80  A    between atoms: _192  and  _195
REMARK   81  A    between atoms: _195  and  _196
REMARK   82  A    between atoms: _199  and  _201
REMARK   83  A    between atoms: _201  and  _202
REMARK   84  A    between atoms: _201  and  _204
REMARK   85  A    between atoms: _204  and  _205
REMARK   86  A    between atoms: _208  and  _210
REMARK   87  A    between atoms: _210  and  _211
REMARK   88  A    between atoms: _210  and  _213
REMARK   89  A    between atoms: _213  and  _214
REMARK   90  A    between atoms: _214  and  _215
REMARK   91  A    between atoms: _215  and  _216
REMARK   92  A    between atoms: _216  and  _217
REMARK   93  A    between atoms: _221  and  _223
REMARK   94  A    between atoms: _223  and  _224
REMARK   95  A    between atoms: _223  and  _226
REMARK   96  A    between atoms: _226  and  _227
REMARK   97  A    between atoms: _232  and  _234
REMARK   98  A    between atoms: _234  and  _235
REMARK   99  A    between atoms: _237  and  _239
REMARK  100  A    between atoms: _239  and  _240
REMARK  101  A    between atoms: _239  and  _242
REMARK  102  A    between atoms: _242  and  _243
REMARK  103  A    between atoms: _246  and  _248
REMARK  104  A    between atoms: _248  and  _249
REMARK  105  A    between atoms: _248  and  _251
REMARK  106  A    between atoms: _251  and  _252
REMARK  107  A    between atoms: _255  and  _257
REMARK  108  A    between atoms: _257  and  _258
REMARK  109  A    between atoms: _257  and  _260
REMARK  110  A    between atoms: _260  and  _261
REMARK  111  A    between atoms: _264  and  _266
REMARK  112  A    between atoms: _266  and  _267
REMARK  113  A    between atoms: _266  and  _269
REMARK  114  A    between atoms: _269  and  _270
REMARK  115  A    between atoms: _270  and  _271
REMARK  116  A    between atoms: _271  and  _272
REMARK  117  A    between atoms: _281  and  _283
REMARK  118  A    between atoms: _283  and  _284
REMARK  119  A    between atoms: _286  and  _288
REMARK  120  A    between atoms: _288  and  _289
REMARK  121  A    between atoms: _288  and  _291
REMARK  122  A    between atoms: _291  and  _292
REMARK  123  A    between atoms: _295  and  _297
REMARK  124  A    between atoms: _297  and  _298
REMARK  125  A    between atoms: _297  and  _300
REMARK  126  A    between atoms: _300  and  _301
REMARK  127  A    between atoms: _303  and  _305
REMARK  128  A    between atoms: _305  and  _306
REMARK  129  A    between atoms: _305  and  _308
REMARK  130  A    between atoms: _308  and  _309
REMARK  131  A    between atoms: _313  and  MN_386
REMARK  132  A    between atoms: _314  and  _316
REMARK  133  A    between atoms: _316  and  _317
REMARK  134  A    between atoms: _320  and  _322
REMARK  135  A    between atoms: _322  and  _323
REMARK  136  A    between atoms: _322  and  _325
REMARK  137  A    between atoms: _325  and  _326
REMARK  138  A    between atoms: _331  and  _333
REMARK  139  A    between atoms: _333  and  _334
REMARK  140  A    between atoms: _333  and  _336
REMARK  141  A    between atoms: _336  and  _337
REMARK  142  A    between atoms: _337  and  _338
REMARK  143  A    between atoms: _340  and  _342
REMARK  144  A    between atoms: _342  and  _343
REMARK  145  A    between atoms: _342  and  _345
REMARK  146  A    between atoms: _345  and  _346
REMARK  147  A    between atoms: _346  and  _347
REMARK  148  A    between atoms: _347  and  _349
REMARK  149  A    between atoms: _349  and  MN_386
REMARK  150  A    between atoms: _350  and  _352
REMARK  151  A    between atoms: _352  and  _353
REMARK  152  A    between atoms: _352  and  _355
REMARK  153  A    between atoms: _355  and  _356
REMARK  154  A    between atoms: _358  and  _360
REMARK  155  A    between atoms: _360  and  _361
REMARK  156  A    between atoms: _360  and  _363
REMARK  157  A    between atoms: _363  and  _364
REMARK  158  A    between atoms: _367  and  _369
REMARK  159  A    between atoms: _369  and  _370
REMARK  160  A    between atoms: _369  and  _372
REMARK  161  A    between atoms: _372  and  _373
REMARK  162  A    between atoms: _373  and  _375
REMARK  163  A    between atoms: _375  and  MN_386
REMARK  164  A    between atoms: _376  and  _378
REMARK  165  A    between atoms: _378  and  _379
REMARK  166  A    between atoms: _378  and  _381
REMARK  167  A    between atoms: _381  and  _382
REMARK  168  A    between atoms: _382  and  _383
REMARK                            x       y       z     vdW  Elec       q    Type
REMARK                         _______ _______ _______ _____ _____    ______ ____
ROOT
ATOM      1  O   HOH     1      40.813 -25.014  -4.162  0.00  0.00    +0.000 OA
ENDROOT
TORSDOF 0
REMARK  Name = ../refined-set-2016/4umb/4umb_pocket.pdb
REMARK  168 active torsions:
REMARK  status: ('A' for Active; 'I' for Inactive)
REMARK    1  A    between atoms: _1  and  _3
REMARK    2  A    between atoms: _3  and  _4
REMARK    3  A    between atoms: _3  and  _6
REMARK    4  A    between atoms: _6  and  _7
REMARK    5  A    between atoms: _11  and  _12
REMARK    6  A    between atoms: _17  and  _19
REMARK    7  A    between atoms: _19  and  _20
REMARK    8  A    between atoms: _19  and  _22
REMARK    9  A    between atoms: _22  and  _23
REMARK   10  A    between atoms: _23  and  MN_386
REMARK   11  A    between atoms: _24  and  _26
REMARK   12  A    between atoms: _26  and  _27
REMARK   13  A    between atoms: _26  and  _29
REMARK   14  A    between atoms: _29  and  _30
REMARK   15  A    between atoms: _32  and  _34
REMARK   16  A    between atoms: _34  and  _35
REMARK   17  A    between atoms: _34  and  _37
REMARK   18  A    between atoms: _37  and  _38
REMARK   19  A    between atoms: _38  and  _39
REMARK   20  A    between atoms: _39  and  _40
REMARK   21  A    between atoms: _49  and  _51
REMARK   22  A    between atoms: _51  and  _52
REMARK   23  A    between atoms: _51  and  _54
REMARK   24  A    between atoms: _54  and  _55
REMARK   25  A    between atoms: _60  and  _61
REMARK   26  A    between atoms: _63  and  _65
REMARK   27  A    between atoms: _65  and  _66
REMARK   28  A    between atoms: _65  and  _68
REMARK   29  A    between atoms: _68  and  _69
REMARK   30  A    between atoms: _69  and  _70
REMARK   31  A    between atoms: _73  and  _75
REMARK   32  A    between atoms: _75  and  _76
REMARK   33  A    between atoms: _75  and  _78
REMARK   34  A    between atoms: _78  and  _79
REMARK   35  A    between atoms: _79  and  _80
REMARK   36  A    between atoms: _80  and  _81
REMARK   37  A    between atoms: _81  and  _82
REMARK   38  A    between atoms: _87  and  _88
REMARK   39  A    between atoms: _93  and  _95
REMARK   40  A    between atoms: _95  and  _96
REMARK   41  A    between atoms: _95  and  _98
REMARK   42  A    between atoms: _98  and  _99
REMARK   43  A    between atoms: _99  and  _100
REMARK   44  A    between atoms: _100  and  _101
REMARK   45  A    between atoms: _110  and  _112
REMARK   46  A    between atoms: _112  and  _113
REMARK   47  A    between atoms: _112  and  _115
REMARK   48  A    between atoms: _115  and  _116
REMARK   49  A    between atoms: _119  and  _121
REMARK   50  A    between atoms: _121  and  _122
REMARK   51  A    between atoms: _121  and  _124
REMARK   52  A    between atoms: _124  and  _125
REMARK   53  A    between atoms: _128  and  _130
REMARK   54  A    between atoms: _130  and  _131
REMARK   55  A    between atoms: _130  and  _133
REMARK   56  A    between atoms: _133  and  _134
REMARK   57  A    between atoms: _134  and  _135
REMARK   58  A    between atoms: _138  and  _140
REMARK   59  A    between atoms: _140  and  _141
REMARK   60  A    between atoms: _140  and  _143
REMARK   61  A    between atoms: _143  and  _144
REMARK   62  A    between atoms: _147  and  _149
REMARK   63  A    between atoms: _149  and  _150
REMARK   64  A    between atoms: _153  and  _155
REMARK   65  A    between atoms: _155  and  _156
REMARK   66  A    between atoms: _155  and  _158
REMARK   67  A    between atoms: _158  and  _159
REMARK   68  A    between atoms: _162  and  _164
REMARK   69  A    between atoms: _164  and  _165
REMARK   70  A    between atoms: _167  and  _169
REMARK   71  A    between atoms: _169  and  _170
REMARK   72  A    between atoms: _173  and  _175
REMARK   73  A    between atoms: _175  and  _176
REMARK   74  A    between atoms: _175  and  _178
REMARK   75  A    between atoms: _178  and  _179
REMARK   76  A    between atoms: _179  and  _180
REMARK   77  A    between atoms: _180  and  _181
REMARK   78  A    between atoms: _190  and  _192
REMARK   79  A    between atoms: _192  and  _193
REMARK   80  A    between atoms: _192  and  _195
REMARK   81  A    between atoms: _195  and  _196
REMARK   82  A    between atoms: _199  and  _201
REMARK   83  A    between atoms: _201  and  _202
REMARK   84  A    between atoms: _201  and  _204
REMARK   85  A    between atoms: _204  and  _205
REMARK   86  A    between atoms: _208  and  _210
REMARK   87  A    between atoms: _210  and  _211
REMARK   88  A    between atoms: _210  and  _213
REMARK   89  A    between atoms: _213  and  _214
REMARK   90  A    between atoms: _214  and  _215
REMARK   91  A    between atoms: _215  and  _216
REMARK   92  A    between atoms: _216  and  _217
REMARK   93  A    between atoms: _221  and  _223
REMARK   94  A    between atoms: _223  and  _224
REMARK   95  A    between atoms: _223  and  _226
REMARK   96  A    between atoms: _226  and  _227
REMARK   97  A    between atoms: _232  and  _234
REMARK   98  A    between atoms: _234  and  _235
REMARK   99  A    between atoms: _237  and  _239
REMARK  100  A    between atoms: _239  and  _240
REMARK  101  A    between atoms: _239  and  _242
REMARK  102  A    between atoms: _242  and  _243
REMARK  103  A    between atoms: _246  and  _248
REMARK  104  A    between atoms: _248  and  _249
REMARK  105  A    between atoms: _248  and  _251
REMARK  106  A    between atoms: _251  and  _252
REMARK  107  A    between atoms: _255  and  _257
REMARK  108  A    between atoms: _257  and  _258
REMARK  109  A    between atoms: _257  and  _260
REMARK  110  A    between atoms: _260  and  _261
REMARK  111  A    between atoms: _264  and  _266
REMARK  112  A    between atoms: _266  and  _267
REMARK  113  A    between atoms: _266  and  _269
REMARK  114  A    between atoms: _269  and  _270
REMARK  115  A    between atoms: _270  and  _271
REMARK  116  A    between atoms: _271  and  _272
REMARK  117  A    between atoms: _281  and  _283
REMARK  118  A    between atoms: _283  and  _284
REMARK  119  A    between atoms: _286  and  _288
REMARK  120  A    between atoms: _288  and  _289
REMARK  121  A    between atoms: _288  and  _291
REMARK  122  A    between atoms: _291  and  _292
REMARK  123  A    between atoms: _295  and  _297
REMARK  124  A    between atoms: _297  and  _298
REMARK  125  A    between atoms: _297  and  _300
REMARK  126  A    between atoms: _300  and  _301
REMARK  127  A    between atoms: _303  and  _305
REMARK  128  A    between atoms: _305  and  _306
REMARK  129  A    between atoms: _305  and  _308
REMARK  130  A    between atoms: _308  and  _309
REMARK  131  A    between atoms: _313  and  MN_386
REMARK  132  A    between atoms: _314  and  _316
REMARK  133  A    between atoms: _316  and  _317
REMARK  134  A    between atoms: _320  and  _322
REMARK  135  A    between atoms: _322  and  _323
REMARK  136  A    between atoms: _322  and  _325
REMARK  137  A    between atoms: _325  and  _326
REMARK  138  A    between atoms: _331  and  _333
REMARK  139  A    between atoms: _333  and  _334
REMARK  140  A    between atoms: _333  and  _336
REMARK  141  A    between atoms: _336  and  _337
REMARK  142  A    between atoms: _337  and  _338
REMARK  143  A    between atoms: _340  and  _342
REMARK  144  A    between atoms: _342  and  _343
REMARK  145  A    between atoms: _342  and  _345
REMARK  146  A    between atoms: _345  and  _346
REMARK  147  A    between atoms: _346  and  _347
REMARK  148  A    between atoms: _347  and  _349
REMARK  149  A    between atoms: _349  and  MN_386
REMARK  150  A    between atoms: _350  and  _352
REMARK  151  A    between atoms: _352  and  _353
REMARK  152  A    between atoms: _352  and  _355
REMARK  153  A    between atoms: _355  and  _356
REMARK  154  A    between atoms: _358  and  _360
REMARK  155  A    between atoms: _360  and  _361
REMARK  156  A    between atoms: _360  and  _363
REMARK  157  A    between atoms: _363  and  _364
REMARK  158  A    between atoms: _367  and  _369
REMARK  159  A    between atoms: _369  and  _370
REMARK  160  A    between atoms: _369  and  _372
REMARK  161  A    between atoms: _372  and  _373
REMARK  162  A    between atoms: _373  and  _375
REMARK  163  A    between atoms: _375  and  MN_386
REMARK  164  A    between atoms: _376  and  _378
REMARK  165  A    between atoms: _378  and  _379
REMARK  166  A    between atoms: _378  and  _381
REMARK  167  A    between atoms: _381  and  _382
REMARK  168  A    between atoms: _382  and  _383
REMARK                            x       y       z     vdW  Elec       q    Type
REMARK                         _______ _______ _______ _____ _____    ______ ____
ROOT
ATOM      1  O   HOH     1      46.712 -29.601  -1.223  0.00  0.00    +0.000 OA
ENDROOT
TORSDOF 0
REMARK  Name = ../refined-set-2016/4umb/4umb_pocket.pdb
REMARK  168 active torsions:
REMARK  status: ('A' for Active; 'I' for Inactive)
REMARK    1  A    between atoms: _1  and  _3
REMARK    2  A    between atoms: _3  and  _4
REMARK    3  A    between atoms: _3  and  _6
REMARK    4  A    between atoms: _6  and  _7
REMARK    5  A    between atoms: _11  and  _12
REMARK    6  A    between atoms: _17  and  _19
REMARK    7  A    between atoms: _19  and  _20
REMARK    8  A    between atoms: _19  and  _22
REMARK    9  A    between atoms: _22  and  _23
REMARK   10  A    between atoms: _23  and  MN_386
REMARK   11  A    between atoms: _24  and  _26
REMARK   12  A    between atoms: _26  and  _27
REMARK   13  A    between atoms: _26  and  _29
REMARK   14  A    between atoms: _29  and  _30
REMARK   15  A    between atoms: _32  and  _34
REMARK   16  A    between atoms: _34  and  _35
REMARK   17  A    between atoms: _34  and  _37
REMARK   18  A    between atoms: _37  and  _38
REMARK   19  A    between atoms: _38  and  _39
REMARK   20  A    between atoms: _39  and  _40
REMARK   21  A    between atoms: _49  and  _51
REMARK   22  A    between atoms: _51  and  _52
REMARK   23  A    between atoms: _51  and  _54
REMARK   24  A    between atoms: _54  and  _55
REMARK   25  A    between atoms: _60  and  _61
REMARK   26  A    between atoms: _63  and  _65
REMARK   27  A    between atoms: _65  and  _66
REMARK   28  A    between atoms: _65  and  _68
REMARK   29  A    between atoms: _68  and  _69
REMARK   30  A    between atoms: _69  and  _70
REMARK   31  A    between atoms: _73  and  _75
REMARK   32  A    between atoms: _75  and  _76
REMARK   33  A    between atoms: _75  and  _78
REMARK   34  A    between atoms: _78  and  _79
REMARK   35  A    between atoms: _79  and  _80
REMARK   36  A    between atoms: _80  and  _81
REMARK   37  A    between atoms: _81  and  _82
REMARK   38  A    between atoms: _87  and  _88
REMARK   39  A    between atoms: _93  and  _95
REMARK   40  A    between atoms: _95  and  _96
REMARK   41  A    between atoms: _95  and  _98
REMARK   42  A    between atoms: _98  and  _99
REMARK   43  A    between atoms: _99  and  _100
REMARK   44  A    between atoms: _100  and  _101
REMARK   45  A    between atoms: _110  and  _112
REMARK   46  A    between atoms: _112  and  _113
REMARK   47  A    between atoms: _112  and  _115
REMARK   48  A    between atoms: _115  and  _116
REMARK   49  A    between atoms: _119  and  _121
REMARK   50  A    between atoms: _121  and  _122
REMARK   51  A    between atoms: _121  and  _124
REMARK   52  A    between atoms: _124  and  _125
REMARK   53  A    between atoms: _128  and  _130
REMARK   54  A    between atoms: _130  and  _131
REMARK   55  A    between atoms: _130  and  _133
REMARK   56  A    between atoms: _133  and  _134
REMARK   57  A    between atoms: _134  and  _135
REMARK   58  A    between atoms: _138  and  _140
REMARK   59  A    between atoms: _140  and  _141
REMARK   60  A    between atoms: _140  and  _143
REMARK   61  A    between atoms: _143  and  _144
REMARK   62  A    between atoms: _147  and  _149
REMARK   63  A    between atoms: _149  and  _150
REMARK   64  A    between atoms: _153  and  _155
REMARK   65  A    between atoms: _155  and  _156
REMARK   66  A    between atoms: _155  and  _158
REMARK   67  A    between atoms: _158  and  _159
REMARK   68  A    between atoms: _162  and  _164
REMARK   69  A    between atoms: _164  and  _165
REMARK   70  A    between atoms: _167  and  _169
REMARK   71  A    between atoms: _169  and  _170
REMARK   72  A    between atoms: _173  and  _175
REMARK   73  A    between atoms: _175  and  _176
REMARK   74  A    between atoms: _175  and  _178
REMARK   75  A    between atoms: _178  and  _179
REMARK   76  A    between atoms: _179  and  _180
REMARK   77  A    between atoms: _180  and  _181
REMARK   78  A    between atoms: _190  and  _192
REMARK   79  A    between atoms: _192  and  _193
REMARK   80  A    between atoms: _192  and  _195
REMARK   81  A    between atoms: _195  and  _196
REMARK   82  A    between atoms: _199  and  _201
REMARK   83  A    between atoms: _201  and  _202
REMARK   84  A    between atoms: _201  and  _204
REMARK   85  A    between atoms: _204  and  _205
REMARK   86  A    between atoms: _208  and  _210
REMARK   87  A    between atoms: _210  and  _211
REMARK   88  A    between atoms: _210  and  _213
REMARK   89  A    between atoms: _213  and  _214
REMARK   90  A    between atoms: _214  and  _215
REMARK   91  A    between atoms: _215  and  _216
REMARK   92  A    between atoms: _216  and  _217
REMARK   93  A    between atoms: _221  and  _223
REMARK   94  A    between atoms: _223  and  _224
REMARK   95  A    between atoms: _223  and  _226
REMARK   96  A    between atoms: _226  and  _227
REMARK   97  A    between atoms: _232  and  _234
REMARK   98  A    between atoms: _234  and  _235
REMARK   99  A    between atoms: _237  and  _239
REMARK  100  A    between atoms: _239  and  _240
REMARK  101  A    between atoms: _239  and  _242
REMARK  102  A    between atoms: _242  and  _243
REMARK  103  A    between atoms: _246  and  _248
REMARK  104  A    between atoms: _248  and  _249
REMARK  105  A    between atoms: _248  and  _251
REMARK  106  A    between atoms: _251  and  _252
REMARK  107  A    between atoms: _255  and  _257
REMARK  108  A    between atoms: _257  and  _258
REMARK  109  A    between atoms: _257  and  _260
REMARK  110  A    between atoms: _260  and  _261
REMARK  111  A    between atoms: _264  and  _266
REMARK  112  A    between atoms: _266  and  _267
REMARK  113  A    between atoms: _266  and  _269
REMARK  114  A    between atoms: _269  and  _270
REMARK  115  A    between atoms: _270  and  _271
REMARK  116  A    between atoms: _271  and  _272
REMARK  117  A    between atoms: _281  and  _283
REMARK  118  A    between atoms: _283  and  _284
REMARK  119  A    between atoms: _286  and  _288
REMARK  120  A    between atoms: _288  and  _289
REMARK  121  A    between atoms: _288  and  _291
REMARK  122  A    between atoms: _291  and  _292
REMARK  123  A    between atoms: _295  and  _297
REMARK  124  A    between atoms: _297  and  _298
REMARK  125  A    between atoms: _297  and  _300
REMARK  126  A    between atoms: _300  and  _301
REMARK  127  A    between atoms: _303  and  _305
REMARK  128  A    between atoms: _305  and  _306
REMARK  129  A    between atoms: _305  and  _308
REMARK  130  A    between atoms: _308  and  _309
REMARK  131  A    between atoms: _313  and  MN_386
REMARK  132  A    between atoms: _314  and  _316
REMARK  133  A    between atoms: _316  and  _317
REMARK  134  A    between atoms: _320  and  _322
REMARK  135  A    between atoms: _322  and  _323
REMARK  136  A    between atoms: _322  and  _325
REMARK  137  A    between atoms: _325  and  _326
REMARK  138  A    between atoms: _331  and  _333
REMARK  139  A    between atoms: _333  and  _334
REMARK  140  A    between atoms: _333  and  _336
REMARK  141  A    between atoms: _336  and  _337
REMARK  142  A    between atoms: _337  and  _338
REMARK  143  A    between atoms: _340  and  _342
REMARK  144  A    between atoms: _342  and  _343
REMARK  145  A    between atoms: _342  and  _345
REMARK  146  A    between atoms: _345  and  _346
REMARK  147  A    between atoms: _346  and  _347
REMARK  148  A    between atoms: _347  and  _349
REMARK  149  A    between atoms: _349  and  MN_386
REMARK  150  A    between atoms: _350  and  _352
REMARK  151  A    between atoms: _352  and  _353
REMARK  152  A    between atoms: _352  and  _355
REMARK  153  A    between atoms: _355  and  _356
REMARK  154  A    between atoms: _358  and  _360
REMARK  155  A    between atoms: _360  and  _361
REMARK  156  A    between atoms: _360  and  _363
REMARK  157  A    between atoms: _363  and  _364
REMARK  158  A    between atoms: _367  and  _369
REMARK  159  A    between atoms: _369  and  _370
REMARK  160  A    between atoms: _369  and  _372
REMARK  161  A    between atoms: _372  and  _373
REMARK  162  A    between atoms: _373  and  _375
REMARK  163  A    between atoms: _375  and  MN_386
REMARK  164  A    between atoms: _376  and  _378
REMARK  165  A    between atoms: _378  and  _379
REMARK  166  A    between atoms: _378  and  _381
REMARK  167  A    between atoms: _381  and  _382
REMARK  168  A    between atoms: _382  and  _383
REMARK                            x       y       z     vdW  Elec       q    Type
REMARK                         _______ _______ _______ _____ _____    ______ ____
ROOT
ATOM      1  O   HOH     1      45.823 -20.799  -6.948  0.00  0.00    +0.000 OA
ENDROOT
TORSDOF 0
REMARK  Name = ../refined-set-2016/4umb/4umb_pocket.pdb
REMARK  168 active torsions:
REMARK  status: ('A' for Active; 'I' for Inactive)
REMARK    1  A    between atoms: _1  and  _3
REMARK    2  A    between atoms: _3  and  _4
REMARK    3  A    between atoms: _3  and  _6
REMARK    4  A    between atoms: _6  and  _7
REMARK    5  A    between atoms: _11  and  _12
REMARK    6  A    between atoms: _17  and  _19
REMARK    7  A    between atoms: _19  and  _20
REMARK    8  A    between atoms: _19  and  _22
REMARK    9  A    between atoms: _22  and  _23
REMARK   10  A    between atoms: _23  and  MN_386
REMARK   11  A    between atoms: _24  and  _26
REMARK   12  A    between atoms: _26  and  _27
REMARK   13  A    between atoms: _26  and  _29
REMARK   14  A    between atoms: _29  and  _30
REMARK   15  A    between atoms: _32  and  _34
REMARK   16  A    between atoms: _34  and  _35
REMARK   17  A    between atoms: _34  and  _37
REMARK   18  A    between atoms: _37  and  _38
REMARK   19  A    between atoms: _38  and  _39
REMARK   20  A    between atoms: _39  and  _40
REMARK   21  A    between atoms: _49  and  _51
REMARK   22  A    between atoms: _51  and  _52
REMARK   23  A    between atoms: _51  and  _54
REMARK   24  A    between atoms: _54  and  _55
REMARK   25  A    between atoms: _60  and  _61
REMARK   26  A    between atoms: _63  and  _65
REMARK   27  A    between atoms: _65  and  _66
REMARK   28  A    between atoms: _65  and  _68
REMARK   29  A    between atoms: _68  and  _69
REMARK   30  A    between atoms: _69  and  _70
REMARK   31  A    between atoms: _73  and  _75
REMARK   32  A    between atoms: _75  and  _76
REMARK   33  A    between atoms: _75  and  _78
REMARK   34  A    between atoms: _78  and  _79
REMARK   35  A    between atoms: _79  and  _80
REMARK   36  A    between atoms: _80  and  _81
REMARK   37  A    between atoms: _81  and  _82
REMARK   38  A    between atoms: _87  and  _88
REMARK   39  A    between atoms: _93  and  _95
REMARK   40  A    between atoms: _95  and  _96
REMARK   41  A    between atoms: _95  and  _98
REMARK   42  A    between atoms: _98  and  _99
REMARK   43  A    between atoms: _99  and  _100
REMARK   44  A    between atoms: _100  and  _101
REMARK   45  A    between atoms: _110  and  _112
REMARK   46  A    between atoms: _112  and  _113
REMARK   47  A    between atoms: _112  and  _115
REMARK   48  A    between atoms: _115  and  _116
REMARK   49  A    between atoms: _119  and  _121
REMARK   50  A    between atoms: _121  and  _122
REMARK   51  A    between atoms: _121  and  _124
REMARK   52  A    between atoms: _124  and  _125
REMARK   53  A    between atoms: _128  and  _130
REMARK   54  A    between atoms: _130  and  _131
REMARK   55  A    between atoms: _130  and  _133
REMARK   56  A    between atoms: _133  and  _134
REMARK   57  A    between atoms: _134  and  _135
REMARK   58  A    between atoms: _138  and  _140
REMARK   59  A    between atoms: _140  and  _141
REMARK   60  A    between atoms: _140  and  _143
REMARK   61  A    between atoms: _143  and  _144
REMARK   62  A    between atoms: _147  and  _149
REMARK   63  A    between atoms: _149  and  _150
REMARK   64  A    between atoms: _153  and  _155
REMARK   65  A    between atoms: _155  and  _156
REMARK   66  A    between atoms: _155  and  _158
REMARK   67  A    between atoms: _158  and  _159
REMARK   68  A    between atoms: _162  and  _164
REMARK   69  A    between atoms: _164  and  _165
REMARK   70  A    between atoms: _167  and  _169
REMARK   71  A    between atoms: _169  and  _170
REMARK   72  A    between atoms: _173  and  _175
REMARK   73  A    between atoms: _175  and  _176
REMARK   74  A    between atoms: _175  and  _178
REMARK   75  A    between atoms: _178  and  _179
REMARK   76  A    between atoms: _179  and  _180
REMARK   77  A    between atoms: _180  and  _181
REMARK   78  A    between atoms: _190  and  _192
REMARK   79  A    between atoms: _192  and  _193
REMARK   80  A    between atoms: _192  and  _195
REMARK   81  A    between atoms: _195  and  _196
REMARK   82  A    between atoms: _199  and  _201
REMARK   83  A    between atoms: _201  and  _202
REMARK   84  A    between atoms: _201  and  _204
REMARK   85  A    between atoms: _204  and  _205
REMARK   86  A    between atoms: _208  and  _210
REMARK   87  A    between atoms: _210  and  _211
REMARK   88  A    between atoms: _210  and  _213
REMARK   89  A    between atoms: _213  and  _214
REMARK   90  A    between atoms: _214  and  _215
REMARK   91  A    between atoms: _215  and  _216
REMARK   92  A    between atoms: _216  and  _217
REMARK   93  A    between atoms: _221  and  _223
REMARK   94  A    between atoms: _223  and  _224
REMARK   95  A    between atoms: _223  and  _226
REMARK   96  A    between atoms: _226  and  _227
REMARK   97  A    between atoms: _232  and  _234
REMARK   98  A    between atoms: _234  and  _235
REMARK   99  A    between atoms: _237  and  _239
REMARK  100  A    between atoms: _239  and  _240
REMARK  101  A    between atoms: _239  and  _242
REMARK  102  A    between atoms: _242  and  _243
REMARK  103  A    between atoms: _246  and  _248
REMARK  104  A    between atoms: _248  and  _249
REMARK  105  A    between atoms: _248  and  _251
REMARK  106  A    between atoms: _251  and  _252
REMARK  107  A    between atoms: _255  and  _257
REMARK  108  A    between atoms: _257  and  _258
REMARK  109  A    between atoms: _257  and  _260
REMARK  110  A    between atoms: _260  and  _261
REMARK  111  A    between atoms: _264  and  _266
REMARK  112  A    between atoms: _266  and  _267
REMARK  113  A    between atoms: _266  and  _269
REMARK  114  A    between atoms: _269  and  _270
REMARK  115  A    between atoms: _270  and  _271
REMARK  116  A    between atoms: _271  and  _272
REMARK  117  A    between atoms: _281  and  _283
REMARK  118  A    between atoms: _283  and  _284
REMARK  119  A    between atoms: _286  and  _288
REMARK  120  A    between atoms: _288  and  _289
REMARK  121  A    between atoms: _288  and  _291
REMARK  122  A    between atoms: _291  and  _292
REMARK  123  A    between atoms: _295  and  _297
REMARK  124  A    between atoms: _297  and  _298
REMARK  125  A    between atoms: _297  and  _300
REMARK  126  A    between atoms: _300  and  _301
REMARK  127  A    between atoms: _303  and  _305
REMARK  128  A    between atoms: _305  and  _306
REMARK  129  A    between atoms: _305  and  _308
REMARK  130  A    between atoms: _308  and  _309
REMARK  131  A    between atoms: _313  and  MN_386
REMARK  132  A    between atoms: _314  and  _316
REMARK  133  A    between atoms: _316  and  _317
REMARK  134  A    between atoms: _320  and  _322
REMARK  135  A    between atoms: _322  and  _323
REMARK  136  A    between atoms: _322  and  _325
REMARK  137  A    between atoms: _325  and  _326
REMARK  138  A    between atoms: _331  and  _333
REMARK  139  A    between atoms: _333  and  _334
REMARK  140  A    between atoms: _333  and  _336
REMARK  141  A    between atoms: _336  and  _337
REMARK  142  A    between atoms: _337  and  _338
REMARK  143  A    between atoms: _340  and  _342
REMARK  144  A    between atoms: _342  and  _343
REMARK  145  A    between atoms: _342  and  _345
REMARK  146  A    between atoms: _345  and  _346
REMARK  147  A    between atoms: _346  and  _347
REMARK  148  A    between atoms: _347  and  _349
REMARK  149  A    between atoms: _349  and  MN_386
REMARK  150  A    between atoms: _350  and  _352
REMARK  151  A    between atoms: _352  and  _353
REMARK  152  A    between atoms: _352  and  _355
REMARK  153  A    between atoms: _355  and  _356
REMARK  154  A    between atoms: _358  and  _360
REMARK  155  A    between atoms: _360  and  _361
REMARK  156  A    between atoms: _360  and  _363
REMARK  157  A    between atoms: _363  and  _364
REMARK  158  A    between atoms: _367  and  _369
REMARK  159  A    between atoms: _369  and  _370
REMARK  160  A    between atoms: _369  and  _372
REMARK  161  A    between atoms: _372  and  _373
REMARK  162  A    between atoms: _373  and  _375
REMARK  163  A    between atoms: _375  and  MN_386
REMARK  164  A    between atoms: _376  and  _378
REMARK  165  A    between atoms: _378  and  _379
REMARK  166  A    between atoms: _378  and  _381
REMARK  167  A    between atoms: _381  and  _382
REMARK  168  A    between atoms: _382  and  _383
REMARK                            x       y       z     vdW  Elec       q    Type
REMARK                         _______ _______ _______ _____ _____    ______ ____
ROOT
ATOM      1  O   HOH     1      42.123 -22.198 -10.727  0.00  0.00    +0.000 OA
ENDROOT
TORSDOF 0
REMARK  Name = ../refined-set-2016/4umb/4umb_pocket.pdb
REMARK  168 active torsions:
REMARK  status: ('A' for Active; 'I' for Inactive)
REMARK    1  A    between atoms: _1  and  _3
REMARK    2  A    between atoms: _3  and  _4
REMARK    3  A    between atoms: _3  and  _6
REMARK    4  A    between atoms: _6  and  _7
REMARK    5  A    between atoms: _11  and  _12
REMARK    6  A    between atoms: _17  and  _19
REMARK    7  A    between atoms: _19  and  _20
REMARK    8  A    between atoms: _19  and  _22
REMARK    9  A    between atoms: _22  and  _23
REMARK   10  A    between atoms: _23  and  MN_386
REMARK   11  A    between atoms: _24  and  _26
REMARK   12  A    between atoms: _26  and  _27
REMARK   13  A    between atoms: _26  and  _29
REMARK   14  A    between atoms: _29  and  _30
REMARK   15  A    between atoms: _32  and  _34
REMARK   16  A    between atoms: _34  and  _35
REMARK   17  A    between atoms: _34  and  _37
REMARK   18  A    between atoms: _37  and  _38
REMARK   19  A    between atoms: _38  and  _39
REMARK   20  A    between atoms: _39  and  _40
REMARK   21  A    between atoms: _49  and  _51
REMARK   22  A    between atoms: _51  and  _52
REMARK   23  A    between atoms: _51  and  _54
REMARK   24  A    between atoms: _54  and  _55
REMARK   25  A    between atoms: _60  and  _61
REMARK   26  A    between atoms: _63  and  _65
REMARK   27  A    between atoms: _65  and  _66
REMARK   28  A    between atoms: _65  and  _68
REMARK   29  A    between atoms: _68  and  _69
REMARK   30  A    between atoms: _69  and  _70
REMARK   31  A    between atoms: _73  and  _75
REMARK   32  A    between atoms: _75  and  _76
REMARK   33  A    between atoms: _75  and  _78
REMARK   34  A    between atoms: _78  and  _79
REMARK   35  A    between atoms: _79  and  _80
REMARK   36  A    between atoms: _80  and  _81
REMARK   37  A    between atoms: _81  and  _82
REMARK   38  A    between atoms: _87  and  _88
REMARK   39  A    between atoms: _93  and  _95
REMARK   40  A    between atoms: _95  and  _96
REMARK   41  A    between atoms: _95  and  _98
REMARK   42  A    between atoms: _98  and  _99
REMARK   43  A    between atoms: _99  and  _100
REMARK   44  A    between atoms: _100  and  _101
REMARK   45  A    between atoms: _110  and  _112
REMARK   46  A    between atoms: _112  and  _113
REMARK   47  A    between atoms: _112  and  _115
REMARK   48  A    between atoms: _115  and  _116
REMARK   49  A    between atoms: _119  and  _121
REMARK   50  A    between atoms: _121  and  _122
REMARK   51  A    between atoms: _121  and  _124
REMARK   52  A    between atoms: _124  and  _125
REMARK   53  A    between atoms: _128  and  _130
REMARK   54  A    between atoms: _130  and  _131
REMARK   55  A    between atoms: _130  and  _133
REMARK   56  A    between atoms: _133  and  _134
REMARK   57  A    between atoms: _134  and  _135
REMARK   58  A    between atoms: _138  and  _140
REMARK   59  A    between atoms: _140  and  _141
REMARK   60  A    between atoms: _140  and  _143
REMARK   61  A    between atoms: _143  and  _144
REMARK   62  A    between atoms: _147  and  _149
REMARK   63  A    between atoms: _149  and  _150
REMARK   64  A    between atoms: _153  and  _155
REMARK   65  A    between atoms: _155  and  _156
REMARK   66  A    between atoms: _155  and  _158
REMARK   67  A    between atoms: _158  and  _159
REMARK   68  A    between atoms: _162  and  _164
REMARK   69  A    between atoms: _164  and  _165
REMARK   70  A    between atoms: _167  and  _169
REMARK   71  A    between atoms: _169  and  _170
REMARK   72  A    between atoms: _173  and  _175
REMARK   73  A    between atoms: _175  and  _176
REMARK   74  A    between atoms: _175  and  _178
REMARK   75  A    between atoms: _178  and  _179
REMARK   76  A    between atoms: _179  and  _180
REMARK   77  A    between atoms: _180  and  _181
REMARK   78  A    between atoms: _190  and  _192
REMARK   79  A    between atoms: _192  and  _193
REMARK   80  A    between atoms: _192  and  _195
REMARK   81  A    between atoms: _195  and  _196
REMARK   82  A    between atoms: _199  and  _201
REMARK   83  A    between atoms: _201  and  _202
REMARK   84  A    between atoms: _201  and  _204
REMARK   85  A    between atoms: _204  and  _205
REMARK   86  A    between atoms: _208  and  _210
REMARK   87  A    between atoms: _210  and  _211
REMARK   88  A    between atoms: _210  and  _213
REMARK   89  A    between atoms: _213  and  _214
REMARK   90  A    between atoms: _214  and  _215
REMARK   91  A    between atoms: _215  and  _216
REMARK   92  A    between atoms: _216  and  _217
REMARK   93  A    between atoms: _221  and  _223
REMARK   94  A    between atoms: _223  and  _224
REMARK   95  A    between atoms: _223  and  _226
REMARK   96  A    between atoms: _226  and  _227
REMARK   97  A    between atoms: _232  and  _234
REMARK   98  A    between atoms: _234  and  _235
REMARK   99  A    between atoms: _237  and  _239
REMARK  100  A    between atoms: _239  and  _240
REMARK  101  A    between atoms: _239  and  _242
REMARK  102  A    between atoms: _242  and  _243
REMARK  103  A    between atoms: _246  and  _248
REMARK  104  A    between atoms: _248  and  _249
REMARK  105  A    between atoms: _248  and  _251
REMARK  106  A    between atoms: _251  and  _252
REMARK  107  A    between atoms: _255  and  _257
REMARK  108  A    between atoms: _257  and  _258
REMARK  109  A    between atoms: _257  and  _260
REMARK  110  A    between atoms: _260  and  _261
REMARK  111  A    between atoms: _264  and  _266
REMARK  112  A    between atoms: _266  and  _267
REMARK  113  A    between atoms: _266  and  _269
REMARK  114  A    between atoms: _269  and  _270
REMARK  115  A    between atoms: _270  and  _271
REMARK  116  A    between atoms: _271  and  _272
REMARK  117  A    between atoms: _281  and  _283
REMARK  118  A    between atoms: _283  and  _284
REMARK  119  A    between atoms: _286  and  _288
REMARK  120  A    between atoms: _288  and  _289
REMARK  121  A    between atoms: _288  and  _291
REMARK  122  A    between atoms: _291  and  _292
REMARK  123  A    between atoms: _295  and  _297
REMARK  124  A    between atoms: _297  and  _298
REMARK  125  A    between atoms: _297  and  _300
REMARK  126  A    between atoms: _300  and  _301
REMARK  127  A    between atoms: _303  and  _305
REMARK  128  A    between atoms: _305  and  _306
REMARK  129  A    between atoms: _305  and  _308
REMARK  130  A    between atoms: _308  and  _309
REMARK  131  A    between atoms: _313  and  MN_386
REMARK  132  A    between atoms: _314  and  _316
REMARK  133  A    between atoms: _316  and  _317
REMARK  134  A    between atoms: _320  and  _322
REMARK  135  A    between atoms: _322  and  _323
REMARK  136  A    between atoms: _322  and  _325
REMARK  137  A    between atoms: _325  and  _326
REMARK  138  A    between atoms: _331  and  _333
REMARK  139  A    between atoms: _333  and  _334
REMARK  140  A    between atoms: _333  and  _336
REMARK  141  A    between atoms: _336  and  _337
REMARK  142  A    between atoms: _337  and  _338
REMARK  143  A    between atoms: _340  and  _342
REMARK  144  A    between atoms: _342  and  _343
REMARK  145  A    between atoms: _342  and  _345
REMARK  146  A    between atoms: _345  and  _346
REMARK  147  A    between atoms: _346  and  _347
REMARK  148  A    between atoms: _347  and  _349
REMARK  149  A    between atoms: _349  and  MN_386
REMARK  150  A    between atoms: _350  and  _352
REMARK  151  A    between atoms: _352  and  _353
REMARK  152  A    between atoms: _352  and  _355
REMARK  153  A    between atoms: _355  and  _356
REMARK  154  A    between atoms: _358  and  _360
REMARK  155  A    between atoms: _360  and  _361
REMARK  156  A    between atoms: _360  and  _363
REMARK  157  A    between atoms: _363  and  _364
REMARK  158  A    between atoms: _367  and  _369
REMARK  159  A    between atoms: _369  and  _370
REMARK  160  A    between atoms: _369  and  _372
REMARK  161  A    between atoms: _372  and  _373
REMARK  162  A    between atoms: _373  and  _375
REMARK  163  A    between atoms: _375  and  MN_386
REMARK  164  A    between atoms: _376  and  _378
REMARK  165  A    between atoms: _378  and  _379
REMARK  166  A    between atoms: _378  and  _381
REMARK  167  A    between atoms: _381  and  _382
REMARK  168  A    between atoms: _382  and  _383
REMARK                            x       y       z     vdW  Elec       q    Type
REMARK                         _______ _______ _______ _____ _____    ______ ____
ROOT
ATOM      1  O   HOH     1      42.539 -18.526 -11.169  0.00  0.00    +0.000 OA
ENDROOT
TORSDOF 0
REMARK  Name = ../refined-set-2016/4umb/4umb_pocket.pdb
REMARK  168 active torsions:
REMARK  status: ('A' for Active; 'I' for Inactive)
REMARK    1  A    between atoms: _1  and  _3
REMARK    2  A    between atoms: _3  and  _4
REMARK    3  A    between atoms: _3  and  _6
REMARK    4  A    between atoms: _6  and  _7
REMARK    5  A    between atoms: _11  and  _12
REMARK    6  A    between atoms: _17  and  _19
REMARK    7  A    between atoms: _19  and  _20
REMARK    8  A    between atoms: _19  and  _22
REMARK    9  A    between atoms: _22  and  _23
REMARK   10  A    between atoms: _23  and  MN_386
REMARK   11  A    between atoms: _24  and  _26
REMARK   12  A    between atoms: _26  and  _27
REMARK   13  A    between atoms: _26  and  _29
REMARK   14  A    between atoms: _29  and  _30
REMARK   15  A    between atoms: _32  and  _34
REMARK   16  A    between atoms: _34  and  _35
REMARK   17  A    between atoms: _34  and  _37
REMARK   18  A    between atoms: _37  and  _38
REMARK   19  A    between atoms: _38  and  _39
REMARK   20  A    between atoms: _39  and  _40
REMARK   21  A    between atoms: _49  and  _51
REMARK   22  A    between atoms: _51  and  _52
REMARK   23  A    between atoms: _51  and  _54
REMARK   24  A    between atoms: _54  and  _55
REMARK   25  A    between atoms: _60  and  _61
REMARK   26  A    between atoms: _63  and  _65
REMARK   27  A    between atoms: _65  and  _66
REMARK   28  A    between atoms: _65  and  _68
REMARK   29  A    between atoms: _68  and  _69
REMARK   30  A    between atoms: _69  and  _70
REMARK   31  A    between atoms: _73  and  _75
REMARK   32  A    between atoms: _75  and  _76
REMARK   33  A    between atoms: _75  and  _78
REMARK   34  A    between atoms: _78  and  _79
REMARK   35  A    between atoms: _79  and  _80
REMARK   36  A    between atoms: _80  and  _81
REMARK   37  A    between atoms: _81  and  _82
REMARK   38  A    between atoms: _87  and  _88
REMARK   39  A    between atoms: _93  and  _95
REMARK   40  A    between atoms: _95  and  _96
REMARK   41  A    between atoms: _95  and  _98
REMARK   42  A    between atoms: _98  and  _99
REMARK   43  A    between atoms: _99  and  _100
REMARK   44  A    between atoms: _100  and  _101
REMARK   45  A    between atoms: _110  and  _112
REMARK   46  A    between atoms: _112  and  _113
REMARK   47  A    between atoms: _112  and  _115
REMARK   48  A    between atoms: _115  and  _116
REMARK   49  A    between atoms: _119  and  _121
REMARK   50  A    between atoms: _121  and  _122
REMARK   51  A    between atoms: _121  and  _124
REMARK   52  A    between atoms: _124  and  _125
REMARK   53  A    between atoms: _128  and  _130
REMARK   54  A    between atoms: _130  and  _131
REMARK   55  A    between atoms: _130  and  _133
REMARK   56  A    between atoms: _133  and  _134
REMARK   57  A    between atoms: _134  and  _135
REMARK   58  A    between atoms: _138  and  _140
REMARK   59  A    between atoms: _140  and  _141
REMARK   60  A    between atoms: _140  and  _143
REMARK   61  A    between atoms: _143  and  _144
REMARK   62  A    between atoms: _147  and  _149
REMARK   63  A    between atoms: _149  and  _150
REMARK   64  A    between atoms: _153  and  _155
REMARK   65  A    between atoms: _155  and  _156
REMARK   66  A    between atoms: _155  and  _158
REMARK   67  A    between atoms: _158  and  _159
REMARK   68  A    between atoms: _162  and  _164
REMARK   69  A    between atoms: _164  and  _165
REMARK   70  A    between atoms: _167  and  _169
REMARK   71  A    between atoms: _169  and  _170
REMARK   72  A    between atoms: _173  and  _175
REMARK   73  A    between atoms: _175  and  _176
REMARK   74  A    between atoms: _175  and  _178
REMARK   75  A    between atoms: _178  and  _179
REMARK   76  A    between atoms: _179  and  _180
REMARK   77  A    between atoms: _180  and  _181
REMARK   78  A    between atoms: _190  and  _192
REMARK   79  A    between atoms: _192  and  _193
REMARK   80  A    between atoms: _192  and  _195
REMARK   81  A    between atoms: _195  and  _196
REMARK   82  A    between atoms: _199  and  _201
REMARK   83  A    between atoms: _201  and  _202
REMARK   84  A    between atoms: _201  and  _204
REMARK   85  A    between atoms: _204  and  _205
REMARK   86  A    between atoms: _208  and  _210
REMARK   87  A    between atoms: _210  and  _211
REMARK   88  A    between atoms: _210  and  _213
REMARK   89  A    between atoms: _213  and  _214
REMARK   90  A    between atoms: _214  and  _215
REMARK   91  A    between atoms: _215  and  _216
REMARK   92  A    between atoms: _216  and  _217
REMARK   93  A    between atoms: _221  and  _223
REMARK   94  A    between atoms: _223  and  _224
REMARK   95  A    between atoms: _223  and  _226
REMARK   96  A    between atoms: _226  and  _227
REMARK   97  A    between atoms: _232  and  _234
REMARK   98  A    between atoms: _234  and  _235
REMARK   99  A    between atoms: _237  and  _239
REMARK  100  A    between atoms: _239  and  _240
REMARK  101  A    between atoms: _239  and  _242
REMARK  102  A    between atoms: _242  and  _243
REMARK  103  A    between atoms: _246  and  _248
REMARK  104  A    between atoms: _248  and  _249
REMARK  105  A    between atoms: _248  and  _251
REMARK  106  A    between atoms: _251  and  _252
REMARK  107  A    between atoms: _255  and  _257
REMARK  108  A    between atoms: _257  and  _258
REMARK  109  A    between atoms: _257  and  _260
REMARK  110  A    between atoms: _260  and  _261
REMARK  111  A    between atoms: _264  and  _266
REMARK  112  A    between atoms: _266  and  _267
REMARK  113  A    between atoms: _266  and  _269
REMARK  114  A    between atoms: _269  and  _270
REMARK  115  A    between atoms: _270  and  _271
REMARK  116  A    between atoms: _271  and  _272
REMARK  117  A    between atoms: _281  and  _283
REMARK  118  A    between atoms: _283  and  _284
REMARK  119  A    between atoms: _286  and  _288
REMARK  120  A    between atoms: _288  and  _289
REMARK  121  A    between atoms: _288  and  _291
REMARK  122  A    between atoms: _291  and  _292
REMARK  123  A    between atoms: _295  and  _297
REMARK  124  A    between atoms: _297  and  _298
REMARK  125  A    between atoms: _297  and  _300
REMARK  126  A    between atoms: _300  and  _301
REMARK  127  A    between atoms: _303  and  _305
REMARK  128  A    between atoms: _305  and  _306
REMARK  129  A    between atoms: _305  and  _308
REMARK  130  A    between atoms: _308  and  _309
REMARK  131  A    between atoms: _313  and  MN_386
REMARK  132  A    between atoms: _314  and  _316
REMARK  133  A    between atoms: _316  and  _317
REMARK  134  A    between atoms: _320  and  _322
REMARK  135  A    between atoms: _322  and  _323
REMARK  136  A    between atoms: _322  and  _325
REMARK  137  A    between atoms: _325  and  _326
REMARK  138  A    between atoms: _331  and  _333
REMARK  139  A    between atoms: _333  and  _334
REMARK  140  A    between atoms: _333  and  _336
REMARK  141  A    between atoms: _336  and  _337
REMARK  142  A    between atoms: _337  and  _338
REMARK  143  A    between atoms: _340  and  _342
REMARK  144  A    between atoms: _342  and  _343
REMARK  145  A    between atoms: _342  and  _345
REMARK  146  A    between atoms: _345  and  _346
REMARK  147  A    between atoms: _346  and  _347
REMARK  148  A    between atoms: _347  and  _349
REMARK  149  A    between atoms: _349  and  MN_386
REMARK  150  A    between atoms: _350  and  _352
REMARK  151  A    between atoms: _352  and  _353
REMARK  152  A    between atoms: _352  and  _355
REMARK  153  A    between atoms: _355  and  _356
REMARK  154  A    between atoms: _358  and  _360
REMARK  155  A    between atoms: _360  and  _361
REMARK  156  A    between atoms: _360  and  _363
REMARK  157  A    between atoms: _363  and  _364
REMARK  158  A    between atoms: _367  and  _369
REMARK  159  A    between atoms: _369  and  _370
REMARK  160  A    between atoms: _369  and  _372
REMARK  161  A    between atoms: _372  and  _373
REMARK  162  A    between atoms: _373  and  _375
REMARK  163  A    between atoms: _375  and  MN_386
REMARK  164  A    between atoms: _376  and  _378
REMARK  165  A    between atoms: _378  and  _379
REMARK  166  A    between atoms: _378  and  _381
REMARK  167  A    between atoms: _381  and  _382
REMARK  168  A    between atoms: _382  and  _383
REMARK                            x       y       z     vdW  Elec       q    Type
REMARK                         _______ _______ _______ _____ _____    ______ ____
ROOT
ATOM      1  O   HOH     1      44.028 -24.052  -9.457  0.00  0.00    +0.000 OA
ENDROOT
TORSDOF 0
REMARK  Name = ../refined-set-2016/4umb/4umb_pocket.pdb
REMARK  168 active torsions:
REMARK  status: ('A' for Active; 'I' for Inactive)
REMARK    1  A    between atoms: _1  and  _3
REMARK    2  A    between atoms: _3  and  _4
REMARK    3  A    between atoms: _3  and  _6
REMARK    4  A    between atoms: _6  and  _7
REMARK    5  A    between atoms: _11  and  _12
REMARK    6  A    between atoms: _17  and  _19
REMARK    7  A    between atoms: _19  and  _20
REMARK    8  A    between atoms: _19  and  _22
REMARK    9  A    between atoms: _22  and  _23
REMARK   10  A    between atoms: _23  and  MN_386
REMARK   11  A    between atoms: _24  and  _26
REMARK   12  A    between atoms: _26  and  _27
REMARK   13  A    between atoms: _26  and  _29
REMARK   14  A    between atoms: _29  and  _30
REMARK   15  A    between atoms: _32  and  _34
REMARK   16  A    between atoms: _34  and  _35
REMARK   17  A    between atoms: _34  and  _37
REMARK   18  A    between atoms: _37  and  _38
REMARK   19  A    between atoms: _38  and  _39
REMARK   20  A    between atoms: _39  and  _40
REMARK   21  A    between atoms: _49  and  _51
REMARK   22  A    between atoms: _51  and  _52
REMARK   23  A    between atoms: _51  and  _54
REMARK   24  A    between atoms: _54  and  _55
REMARK   25  A    between atoms: _60  and  _61
REMARK   26  A    between atoms: _63  and  _65
REMARK   27  A    between atoms: _65  and  _66
REMARK   28  A    between atoms: _65  and  _68
REMARK   29  A    between atoms: _68  and  _69
REMARK   30  A    between atoms: _69  and  _70
REMARK   31  A    between atoms: _73  and  _75
REMARK   32  A    between atoms: _75  and  _76
REMARK   33  A    between atoms: _75  and  _78
REMARK   34  A    between atoms: _78  and  _79
REMARK   35  A    between atoms: _79  and  _80
REMARK   36  A    between atoms: _80  and  _81
REMARK   37  A    between atoms: _81  and  _82
REMARK   38  A    between atoms: _87  and  _88
REMARK   39  A    between atoms: _93  and  _95
REMARK   40  A    between atoms: _95  and  _96
REMARK   41  A    between atoms: _95  and  _98
REMARK   42  A    between atoms: _98  and  _99
REMARK   43  A    between atoms: _99  and  _100
REMARK   44  A    between atoms: _100  and  _101
REMARK   45  A    between atoms: _110  and  _112
REMARK   46  A    between atoms: _112  and  _113
REMARK   47  A    between atoms: _112  and  _115
REMARK   48  A    between atoms: _115  and  _116
REMARK   49  A    between atoms: _119  and  _121
REMARK   50  A    between atoms: _121  and  _122
REMARK   51  A    between atoms: _121  and  _124
REMARK   52  A    between atoms: _124  and  _125
REMARK   53  A    between atoms: _128  and  _130
REMARK   54  A    between atoms: _130  and  _131
REMARK   55  A    between atoms: _130  and  _133
REMARK   56  A    between atoms: _133  and  _134
REMARK   57  A    between atoms: _134  and  _135
REMARK   58  A    between atoms: _138  and  _140
REMARK   59  A    between atoms: _140  and  _141
REMARK   60  A    between atoms: _140  and  _143
REMARK   61  A    between atoms: _143  and  _144
REMARK   62  A    between atoms: _147  and  _149
REMARK   63  A    between atoms: _149  and  _150
REMARK   64  A    between atoms: _153  and  _155
REMARK   65  A    between atoms: _155  and  _156
REMARK   66  A    between atoms: _155  and  _158
REMARK   67  A    between atoms: _158  and  _159
REMARK   68  A    between atoms: _162  and  _164
REMARK   69  A    between atoms: _164  and  _165
REMARK   70  A    between atoms: _167  and  _169
REMARK   71  A    between atoms: _169  and  _170
REMARK   72  A    between atoms: _173  and  _175
REMARK   73  A    between atoms: _175  and  _176
REMARK   74  A    between atoms: _175  and  _178
REMARK   75  A    between atoms: _178  and  _179
REMARK   76  A    between atoms: _179  and  _180
REMARK   77  A    between atoms: _180  and  _181
REMARK   78  A    between atoms: _190  and  _192
REMARK   79  A    between atoms: _192  and  _193
REMARK   80  A    between atoms: _192  and  _195
REMARK   81  A    between atoms: _195  and  _196
REMARK   82  A    between atoms: _199  and  _201
REMARK   83  A    between atoms: _201  and  _202
REMARK   84  A    between atoms: _201  and  _204
REMARK   85  A    between atoms: _204  and  _205
REMARK   86  A    between atoms: _208  and  _210
REMARK   87  A    between atoms: _210  and  _211
REMARK   88  A    between atoms: _210  and  _213
REMARK   89  A    between atoms: _213  and  _214
REMARK   90  A    between atoms: _214  and  _215
REMARK   91  A    between atoms: _215  and  _216
REMARK   92  A    between atoms: _216  and  _217
REMARK   93  A    between atoms: _221  and  _223
REMARK   94  A    between atoms: _223  and  _224
REMARK   95  A    between atoms: _223  and  _226
REMARK   96  A    between atoms: _226  and  _227
REMARK   97  A    between atoms: _232  and  _234
REMARK   98  A    between atoms: _234  and  _235
REMARK   99  A    between atoms: _237  and  _239
REMARK  100  A    between atoms: _239  and  _240
REMARK  101  A    between atoms: _239  and  _242
REMARK  102  A    between atoms: _242  and  _243
REMARK  103  A    between atoms: _246  and  _248
REMARK  104  A    between atoms: _248  and  _249
REMARK  105  A    between atoms: _248  and  _251
REMARK  106  A    between atoms: _251  and  _252
REMARK  107  A    between atoms: _255  and  _257
REMARK  108  A    between atoms: _257  and  _258
REMARK  109  A    between atoms: _257  and  _260
REMARK  110  A    between atoms: _260  and  _261
REMARK  111  A    between atoms: _264  and  _266
REMARK  112  A    between atoms: _266  and  _267
REMARK  113  A    between atoms: _266  and  _269
REMARK  114  A    between atoms: _269  and  _270
REMARK  115  A    between atoms: _270  and  _271
REMARK  116  A    between atoms: _271  and  _272
REMARK  117  A    between atoms: _281  and  _283
REMARK  118  A    between atoms: _283  and  _284
REMARK  119  A    between atoms: _286  and  _288
REMARK  120  A    between atoms: _288  and  _289
REMARK  121  A    between atoms: _288  and  _291
REMARK  122  A    between atoms: _291  and  _292
REMARK  123  A    between atoms: _295  and  _297
REMARK  124  A    between atoms: _297  and  _298
REMARK  125  A    between atoms: _297  and  _300
REMARK  126  A    between atoms: _300  and  _301
REMARK  127  A    between atoms: _303  and  _305
REMARK  128  A    between atoms: _305  and  _306
REMARK  129  A    between atoms: _305  and  _308
REMARK  130  A    between atoms: _308  and  _309
REMARK  131  A    between atoms: _313  and  MN_386
REMARK  132  A    between atoms: _314  and  _316
REMARK  133  A    between atoms: _316  and  _317
REMARK  134  A    between atoms: _320  and  _322
REMARK  135  A    between atoms: _322  and  _323
REMARK  136  A    between atoms: _322  and  _325
REMARK  137  A    between atoms: _325  and  _326
REMARK  138  A    between atoms: _331  and  _333
REMARK  139  A    between atoms: _333  and  _334
REMARK  140  A    between atoms: _333  and  _336
REMARK  141  A    between atoms: _336  and  _337
REMARK  142  A    between atoms: _337  and  _338
REMARK  143  A    between atoms: _340  and  _342
REMARK  144  A    between atoms: _342  and  _343
REMARK  145  A    between atoms: _342  and  _345
REMARK  146  A    between atoms: _345  and  _346
REMARK  147  A    between atoms: _346  and  _347
REMARK  148  A    between atoms: _347  and  _349
REMARK  149  A    between atoms: _349  and  MN_386
REMARK  150  A    between atoms: _350  and  _352
REMARK  151  A    between atoms: _352  and  _353
REMARK  152  A    between atoms: _352  and  _355
REMARK  153  A    between atoms: _355  and  _356
REMARK  154  A    between atoms: _358  and  _360
REMARK  155  A    between atoms: _360  and  _361
REMARK  156  A    between atoms: _360  and  _363
REMARK  157  A    between atoms: _363  and  _364
REMARK  158  A    between atoms: _367  and  _369
REMARK  159  A    between atoms: _369  and  _370
REMARK  160  A    between atoms: _369  and  _372
REMARK  161  A    between atoms: _372  and  _373
REMARK  162  A    between atoms: _373  and  _375
REMARK  163  A    between atoms: _375  and  MN_386
REMARK  164  A    between atoms: _376  and  _378
REMARK  165  A    between atoms: _378  and  _379
REMARK  166  A    between atoms: _378  and  _381
REMARK  167  A    between atoms: _381  and  _382
REMARK  168  A    between atoms: _382  and  _383
REMARK                            x       y       z     vdW  Elec       q    Type
REMARK                         _______ _______ _______ _____ _____    ______ ____
ROOT
ATOM      1  O   HOH     1      46.707 -27.523 -14.490  0.00  0.00    +0.000 OA
ENDROOT
TORSDOF 0
REMARK  Name = ../refined-set-2016/4umb/4umb_pocket.pdb
REMARK  168 active torsions:
REMARK  status: ('A' for Active; 'I' for Inactive)
REMARK    1  A    between atoms: _1  and  _3
REMARK    2  A    between atoms: _3  and  _4
REMARK    3  A    between atoms: _3  and  _6
REMARK    4  A    between atoms: _6  and  _7
REMARK    5  A    between atoms: _11  and  _12
REMARK    6  A    between atoms: _17  and  _19
REMARK    7  A    between atoms: _19  and  _20
REMARK    8  A    between atoms: _19  and  _22
REMARK    9  A    between atoms: _22  and  _23
REMARK   10  A    between atoms: _23  and  MN_386
REMARK   11  A    between atoms: _24  and  _26
REMARK   12  A    between atoms: _26  and  _27
REMARK   13  A    between atoms: _26  and  _29
REMARK   14  A    between atoms: _29  and  _30
REMARK   15  A    between atoms: _32  and  _34
REMARK   16  A    between atoms: _34  and  _35
REMARK   17  A    between atoms: _34  and  _37
REMARK   18  A    between atoms: _37  and  _38
REMARK   19  A    between atoms: _38  and  _39
REMARK   20  A    between atoms: _39  and  _40
REMARK   21  A    between atoms: _49  and  _51
REMARK   22  A    between atoms: _51  and  _52
REMARK   23  A    between atoms: _51  and  _54
REMARK   24  A    between atoms: _54  and  _55
REMARK   25  A    between atoms: _60  and  _61
REMARK   26  A    between atoms: _63  and  _65
REMARK   27  A    between atoms: _65  and  _66
REMARK   28  A    between atoms: _65  and  _68
REMARK   29  A    between atoms: _68  and  _69
REMARK   30  A    between atoms: _69  and  _70
REMARK   31  A    between atoms: _73  and  _75
REMARK   32  A    between atoms: _75  and  _76
REMARK   33  A    between atoms: _75  and  _78
REMARK   34  A    between atoms: _78  and  _79
REMARK   35  A    between atoms: _79  and  _80
REMARK   36  A    between atoms: _80  and  _81
REMARK   37  A    between atoms: _81  and  _82
REMARK   38  A    between atoms: _87  and  _88
REMARK   39  A    between atoms: _93  and  _95
REMARK   40  A    between atoms: _95  and  _96
REMARK   41  A    between atoms: _95  and  _98
REMARK   42  A    between atoms: _98  and  _99
REMARK   43  A    between atoms: _99  and  _100
REMARK   44  A    between atoms: _100  and  _101
REMARK   45  A    between atoms: _110  and  _112
REMARK   46  A    between atoms: _112  and  _113
REMARK   47  A    between atoms: _112  and  _115
REMARK   48  A    between atoms: _115  and  _116
REMARK   49  A    between atoms: _119  and  _121
REMARK   50  A    between atoms: _121  and  _122
REMARK   51  A    between atoms: _121  and  _124
REMARK   52  A    between atoms: _124  and  _125
REMARK   53  A    between atoms: _128  and  _130
REMARK   54  A    between atoms: _130  and  _131
REMARK   55  A    between atoms: _130  and  _133
REMARK   56  A    between atoms: _133  and  _134
REMARK   57  A    between atoms: _134  and  _135
REMARK   58  A    between atoms: _138  and  _140
REMARK   59  A    between atoms: _140  and  _141
REMARK   60  A    between atoms: _140  and  _143
REMARK   61  A    between atoms: _143  and  _144
REMARK   62  A    between atoms: _147  and  _149
REMARK   63  A    between atoms: _149  and  _150
REMARK   64  A    between atoms: _153  and  _155
REMARK   65  A    between atoms: _155  and  _156
REMARK   66  A    between atoms: _155  and  _158
REMARK   67  A    between atoms: _158  and  _159
REMARK   68  A    between atoms: _162  and  _164
REMARK   69  A    between atoms: _164  and  _165
REMARK   70  A    between atoms: _167  and  _169
REMARK   71  A    between atoms: _169  and  _170
REMARK   72  A    between atoms: _173  and  _175
REMARK   73  A    between atoms: _175  and  _176
REMARK   74  A    between atoms: _175  and  _178
REMARK   75  A    between atoms: _178  and  _179
REMARK   76  A    between atoms: _179  and  _180
REMARK   77  A    between atoms: _180  and  _181
REMARK   78  A    between atoms: _190  and  _192
REMARK   79  A    between atoms: _192  and  _193
REMARK   80  A    between atoms: _192  and  _195
REMARK   81  A    between atoms: _195  and  _196
REMARK   82  A    between atoms: _199  and  _201
REMARK   83  A    between atoms: _201  and  _202
REMARK   84  A    between atoms: _201  and  _204
REMARK   85  A    between atoms: _204  and  _205
REMARK   86  A    between atoms: _208  and  _210
REMARK   87  A    between atoms: _210  and  _211
REMARK   88  A    between atoms: _210  and  _213
REMARK   89  A    between atoms: _213  and  _214
REMARK   90  A    between atoms: _214  and  _215
REMARK   91  A    between atoms: _215  and  _216
REMARK   92  A    between atoms: _216  and  _217
REMARK   93  A    between atoms: _221  and  _223
REMARK   94  A    between atoms: _223  and  _224
REMARK   95  A    between atoms: _223  and  _226
REMARK   96  A    between atoms: _226  and  _227
REMARK   97  A    between atoms: _232  and  _234
REMARK   98  A    between atoms: _234  and  _235
REMARK   99  A    between atoms: _237  and  _239
REMARK  100  A    between atoms: _239  and  _240
REMARK  101  A    between atoms: _239  and  _242
REMARK  102  A    between atoms: _242  and  _243
REMARK  103  A    between atoms: _246  and  _248
REMARK  104  A    between atoms: _248  and  _249
REMARK  105  A    between atoms: _248  and  _251
REMARK  106  A    between atoms: _251  and  _252
REMARK  107  A    between atoms: _255  and  _257
REMARK  108  A    between atoms: _257  and  _258
REMARK  109  A    between atoms: _257  and  _260
REMARK  110  A    between atoms: _260  and  _261
REMARK  111  A    between atoms: _264  and  _266
REMARK  112  A    between atoms: _266  and  _267
REMARK  113  A    between atoms: _266  and  _269
REMARK  114  A    between atoms: _269  and  _270
REMARK  115  A    between atoms: _270  and  _271
REMARK  116  A    between atoms: _271  and  _272
REMARK  117  A    between atoms: _281  and  _283
REMARK  118  A    between atoms: _283  and  _284
REMARK  119  A    between atoms: _286  and  _288
REMARK  120  A    between atoms: _288  and  _289
REMARK  121  A    between atoms: _288  and  _291
REMARK  122  A    between atoms: _291  and  _292
REMARK  123  A    between atoms: _295  and  _297
REMARK  124  A    between atoms: _297  and  _298
REMARK  125  A    between atoms: _297  and  _300
REMARK  126  A    between atoms: _300  and  _301
REMARK  127  A    between atoms: _303  and  _305
REMARK  128  A    between atoms: _305  and  _306
REMARK  129  A    between atoms: _305  and  _308
REMARK  130  A    between atoms: _308  and  _309
REMARK  131  A    between atoms: _313  and  MN_386
REMARK  132  A    between atoms: _314  and  _316
REMARK  133  A    between atoms: _316  and  _317
REMARK  134  A    between atoms: _320  and  _322
REMARK  135  A    between atoms: _322  and  _323
REMARK  136  A    between atoms: _322  and  _325
REMARK  137  A    between atoms: _325  and  _326
REMARK  138  A    between atoms: _331  and  _333
REMARK  139  A    between atoms: _333  and  _334
REMARK  140  A    between atoms: _333  and  _336
REMARK  141  A    between atoms: _336  and  _337
REMARK  142  A    between atoms: _337  and  _338
REMARK  143  A    between atoms: _340  and  _342
REMARK  144  A    between atoms: _342  and  _343
REMARK  145  A    between atoms: _342  and  _345
REMARK  146  A    between atoms: _345  and  _346
REMARK  147  A    between atoms: _346  and  _347
REMARK  148  A    between atoms: _347  and  _349
REMARK  149  A    between atoms: _349  and  MN_386
REMARK  150  A    between atoms: _350  and  _352
REMARK  151  A    between atoms: _352  and  _353
REMARK  152  A    between atoms: _352  and  _355
REMARK  153  A    between atoms: _355  and  _356
REMARK  154  A    between atoms: _358  and  _360
REMARK  155  A    between atoms: _360  and  _361
REMARK  156  A    between atoms: _360  and  _363
REMARK  157  A    between atoms: _363  and  _364
REMARK  158  A    between atoms: _367  and  _369
REMARK  159  A    between atoms: _369  and  _370
REMARK  160  A    between atoms: _369  and  _372
REMARK  161  A    between atoms: _372  and  _373
REMARK  162  A    between atoms: _373  and  _375
REMARK  163  A    between atoms: _375  and  MN_386
REMARK  164  A    between atoms: _376  and  _378
REMARK  165  A    between atoms: _378  and  _379
REMARK  166  A    between atoms: _378  and  _381
REMARK  167  A    between atoms: _381  and  _382
REMARK  168  A    between atoms: _382  and  _383
REMARK                            x       y       z     vdW  Elec       q    Type
REMARK                         _______ _______ _______ _____ _____    ______ ____
ROOT
ATOM      1  O   HOH     1      42.206 -30.642 -11.076  0.00  0.00    +0.000 OA
ENDROOT
TORSDOF 0
REMARK  Name = ../refined-set-2016/4umb/4umb_pocket.pdb
REMARK  168 active torsions:
REMARK  status: ('A' for Active; 'I' for Inactive)
REMARK    1  A    between atoms: _1  and  _3
REMARK    2  A    between atoms: _3  and  _4
REMARK    3  A    between atoms: _3  and  _6
REMARK    4  A    between atoms: _6  and  _7
REMARK    5  A    between atoms: _11  and  _12
REMARK    6  A    between atoms: _17  and  _19
REMARK    7  A    between atoms: _19  and  _20
REMARK    8  A    between atoms: _19  and  _22
REMARK    9  A    between atoms: _22  and  _23
REMARK   10  A    between atoms: _23  and  MN_386
REMARK   11  A    between atoms: _24  and  _26
REMARK   12  A    between atoms: _26  and  _27
REMARK   13  A    between atoms: _26  and  _29
REMARK   14  A    between atoms: _29  and  _30
REMARK   15  A    between atoms: _32  and  _34
REMARK   16  A    between atoms: _34  and  _35
REMARK   17  A    between atoms: _34  and  _37
REMARK   18  A    between atoms: _37  and  _38
REMARK   19  A    between atoms: _38  and  _39
REMARK   20  A    between atoms: _39  and  _40
REMARK   21  A    between atoms: _49  and  _51
REMARK   22  A    between atoms: _51  and  _52
REMARK   23  A    between atoms: _51  and  _54
REMARK   24  A    between atoms: _54  and  _55
REMARK   25  A    between atoms: _60  and  _61
REMARK   26  A    between atoms: _63  and  _65
REMARK   27  A    between atoms: _65  and  _66
REMARK   28  A    between atoms: _65  and  _68
REMARK   29  A    between atoms: _68  and  _69
REMARK   30  A    between atoms: _69  and  _70
REMARK   31  A    between atoms: _73  and  _75
REMARK   32  A    between atoms: _75  and  _76
REMARK   33  A    between atoms: _75  and  _78
REMARK   34  A    between atoms: _78  and  _79
REMARK   35  A    between atoms: _79  and  _80
REMARK   36  A    between atoms: _80  and  _81
REMARK   37  A    between atoms: _81  and  _82
REMARK   38  A    between atoms: _87  and  _88
REMARK   39  A    between atoms: _93  and  _95
REMARK   40  A    between atoms: _95  and  _96
REMARK   41  A    between atoms: _95  and  _98
REMARK   42  A    between atoms: _98  and  _99
REMARK   43  A    between atoms: _99  and  _100
REMARK   44  A    between atoms: _100  and  _101
REMARK   45  A    between atoms: _110  and  _112
REMARK   46  A    between atoms: _112  and  _113
REMARK   47  A    between atoms: _112  and  _115
REMARK   48  A    between atoms: _115  and  _116
REMARK   49  A    between atoms: _119  and  _121
REMARK   50  A    between atoms: _121  and  _122
REMARK   51  A    between atoms: _121  and  _124
REMARK   52  A    between atoms: _124  and  _125
REMARK   53  A    between atoms: _128  and  _130
REMARK   54  A    between atoms: _130  and  _131
REMARK   55  A    between atoms: _130  and  _133
REMARK   56  A    between atoms: _133  and  _134
REMARK   57  A    between atoms: _134  and  _135
REMARK   58  A    between atoms: _138  and  _140
REMARK   59  A    between atoms: _140  and  _141
REMARK   60  A    between atoms: _140  and  _143
REMARK   61  A    between atoms: _143  and  _144
REMARK   62  A    between atoms: _147  and  _149
REMARK   63  A    between atoms: _149  and  _150
REMARK   64  A    between atoms: _153  and  _155
REMARK   65  A    between atoms: _155  and  _156
REMARK   66  A    between atoms: _155  and  _158
REMARK   67  A    between atoms: _158  and  _159
REMARK   68  A    between atoms: _162  and  _164
REMARK   69  A    between atoms: _164  and  _165
REMARK   70  A    between atoms: _167  and  _169
REMARK   71  A    between atoms: _169  and  _170
REMARK   72  A    between atoms: _173  and  _175
REMARK   73  A    between atoms: _175  and  _176
REMARK   74  A    between atoms: _175  and  _178
REMARK   75  A    between atoms: _178  and  _179
REMARK   76  A    between atoms: _179  and  _180
REMARK   77  A    between atoms: _180  and  _181
REMARK   78  A    between atoms: _190  and  _192
REMARK   79  A    between atoms: _192  and  _193
REMARK   80  A    between atoms: _192  and  _195
REMARK   81  A    between atoms: _195  and  _196
REMARK   82  A    between atoms: _199  and  _201
REMARK   83  A    between atoms: _201  and  _202
REMARK   84  A    between atoms: _201  and  _204
REMARK   85  A    between atoms: _204  and  _205
REMARK   86  A    between atoms: _208  and  _210
REMARK   87  A    between atoms: _210  and  _211
REMARK   88  A    between atoms: _210  and  _213
REMARK   89  A    between atoms: _213  and  _214
REMARK   90  A    between atoms: _214  and  _215
REMARK   91  A    between atoms: _215  and  _216
REMARK   92  A    between atoms: _216  and  _217
REMARK   93  A    between atoms: _221  and  _223
REMARK   94  A    between atoms: _223  and  _224
REMARK   95  A    between atoms: _223  and  _226
REMARK   96  A    between atoms: _226  and  _227
REMARK   97  A    between atoms: _232  and  _234
REMARK   98  A    between atoms: _234  and  _235
REMARK   99  A    between atoms: _237  and  _239
REMARK  100  A    between atoms: _239  and  _240
REMARK  101  A    between atoms: _239  and  _242
REMARK  102  A    between atoms: _242  and  _243
REMARK  103  A    between atoms: _246  and  _248
REMARK  104  A    between atoms: _248  and  _249
REMARK  105  A    between atoms: _248  and  _251
REMARK  106  A    between atoms: _251  and  _252
REMARK  107  A    between atoms: _255  and  _257
REMARK  108  A    between atoms: _257  and  _258
REMARK  109  A    between atoms: _257  and  _260
REMARK  110  A    between atoms: _260  and  _261
REMARK  111  A    between atoms: _264  and  _266
REMARK  112  A    between atoms: _266  and  _267
REMARK  113  A    between atoms: _266  and  _269
REMARK  114  A    between atoms: _269  and  _270
REMARK  115  A    between atoms: _270  and  _271
REMARK  116  A    between atoms: _271  and  _272
REMARK  117  A    between atoms: _281  and  _283
REMARK  118  A    between atoms: _283  and  _284
REMARK  119  A    between atoms: _286  and  _288
REMARK  120  A    between atoms: _288  and  _289
REMARK  121  A    between atoms: _288  and  _291
REMARK  122  A    between atoms: _291  and  _292
REMARK  123  A    between atoms: _295  and  _297
REMARK  124  A    between atoms: _297  and  _298
REMARK  125  A    between atoms: _297  and  _300
REMARK  126  A    between atoms: _300  and  _301
REMARK  127  A    between atoms: _303  and  _305
REMARK  128  A    between atoms: _305  and  _306
REMARK  129  A    between atoms: _305  and  _308
REMARK  130  A    between atoms: _308  and  _309
REMARK  131  A    between atoms: _313  and  MN_386
REMARK  132  A    between atoms: _314  and  _316
REMARK  133  A    between atoms: _316  and  _317
REMARK  134  A    between atoms: _320  and  _322
REMARK  135  A    between atoms: _322  and  _323
REMARK  136  A    between atoms: _322  and  _325
REMARK  137  A    between atoms: _325  and  _326
REMARK  138  A    between atoms: _331  and  _333
REMARK  139  A    between atoms: _333  and  _334
REMARK  140  A    between atoms: _333  and  _336
REMARK  141  A    between atoms: _336  and  _337
REMARK  142  A    between atoms: _337  and  _338
REMARK  143  A    between atoms: _340  and  _342
REMARK  144  A    between atoms: _342  and  _343
REMARK  145  A    between atoms: _342  and  _345
REMARK  146  A    between atoms: _345  and  _346
REMARK  147  A    between atoms: _346  and  _347
REMARK  148  A    between atoms: _347  and  _349
REMARK  149  A    between atoms: _349  and  MN_386
REMARK  150  A    between atoms: _350  and  _352
REMARK  151  A    between atoms: _352  and  _353
REMARK  152  A    between atoms: _352  and  _355
REMARK  153  A    between atoms: _355  and  _356
REMARK  154  A    between atoms: _358  and  _360
REMARK  155  A    between atoms: _360  and  _361
REMARK  156  A    between atoms: _360  and  _363
REMARK  157  A    between atoms: _363  and  _364
REMARK  158  A    between atoms: _367  and  _369
REMARK  159  A    between atoms: _369  and  _370
REMARK  160  A    between atoms: _369  and  _372
REMARK  161  A    between atoms: _372  and  _373
REMARK  162  A    between atoms: _373  and  _375
REMARK  163  A    between atoms: _375  and  MN_386
REMARK  164  A    between atoms: _376  and  _378
REMARK  165  A    between atoms: _378  and  _379
REMARK  166  A    between atoms: _378  and  _381
REMARK  167  A    between atoms: _381  and  _382
REMARK  168  A    between atoms: _382  and  _383
REMARK                            x       y       z     vdW  Elec       q    Type
REMARK                         _______ _______ _______ _____ _____    ______ ____
ROOT
ATOM      1  O   HOH     1      45.606 -27.632  -5.244  0.00  0.00    +0.000 OA
ENDROOT
TORSDOF 0
REMARK  Name = ../refined-set-2016/4umb/4umb_pocket.pdb
REMARK  168 active torsions:
REMARK  status: ('A' for Active; 'I' for Inactive)
REMARK    1  A    between atoms: _1  and  _3
REMARK    2  A    between atoms: _3  and  _4
REMARK    3  A    between atoms: _3  and  _6
REMARK    4  A    between atoms: _6  and  _7
REMARK    5  A    between atoms: _11  and  _12
REMARK    6  A    between atoms: _17  and  _19
REMARK    7  A    between atoms: _19  and  _20
REMARK    8  A    between atoms: _19  and  _22
REMARK    9  A    between atoms: _22  and  _23
REMARK   10  A    between atoms: _23  and  MN_386
REMARK   11  A    between atoms: _24  and  _26
REMARK   12  A    between atoms: _26  and  _27
REMARK   13  A    between atoms: _26  and  _29
REMARK   14  A    between atoms: _29  and  _30
REMARK   15  A    between atoms: _32  and  _34
REMARK   16  A    between atoms: _34  and  _35
REMARK   17  A    between atoms: _34  and  _37
REMARK   18  A    between atoms: _37  and  _38
REMARK   19  A    between atoms: _38  and  _39
REMARK   20  A    between atoms: _39  and  _40
REMARK   21  A    between atoms: _49  and  _51
REMARK   22  A    between atoms: _51  and  _52
REMARK   23  A    between atoms: _51  and  _54
REMARK   24  A    between atoms: _54  and  _55
REMARK   25  A    between atoms: _60  and  _61
REMARK   26  A    between atoms: _63  and  _65
REMARK   27  A    between atoms: _65  and  _66
REMARK   28  A    between atoms: _65  and  _68
REMARK   29  A    between atoms: _68  and  _69
REMARK   30  A    between atoms: _69  and  _70
REMARK   31  A    between atoms: _73  and  _75
REMARK   32  A    between atoms: _75  and  _76
REMARK   33  A    between atoms: _75  and  _78
REMARK   34  A    between atoms: _78  and  _79
REMARK   35  A    between atoms: _79  and  _80
REMARK   36  A    between atoms: _80  and  _81
REMARK   37  A    between atoms: _81  and  _82
REMARK   38  A    between atoms: _87  and  _88
REMARK   39  A    between atoms: _93  and  _95
REMARK   40  A    between atoms: _95  and  _96
REMARK   41  A    between atoms: _95  and  _98
REMARK   42  A    between atoms: _98  and  _99
REMARK   43  A    between atoms: _99  and  _100
REMARK   44  A    between atoms: _100  and  _101
REMARK   45  A    between atoms: _110  and  _112
REMARK   46  A    between atoms: _112  and  _113
REMARK   47  A    between atoms: _112  and  _115
REMARK   48  A    between atoms: _115  and  _116
REMARK   49  A    between atoms: _119  and  _121
REMARK   50  A    between atoms: _121  and  _122
REMARK   51  A    between atoms: _121  and  _124
REMARK   52  A    between atoms: _124  and  _125
REMARK   53  A    between atoms: _128  and  _130
REMARK   54  A    between atoms: _130  and  _131
REMARK   55  A    between atoms: _130  and  _133
REMARK   56  A    between atoms: _133  and  _134
REMARK   57  A    between atoms: _134  and  _135
REMARK   58  A    between atoms: _138  and  _140
REMARK   59  A    between atoms: _140  and  _141
REMARK   60  A    between atoms: _140  and  _143
REMARK   61  A    between atoms: _143  and  _144
REMARK   62  A    between atoms: _147  and  _149
REMARK   63  A    between atoms: _149  and  _150
REMARK   64  A    between atoms: _153  and  _155
REMARK   65  A    between atoms: _155  and  _156
REMARK   66  A    between atoms: _155  and  _158
REMARK   67  A    between atoms: _158  and  _159
REMARK   68  A    between atoms: _162  and  _164
REMARK   69  A    between atoms: _164  and  _165
REMARK   70  A    between atoms: _167  and  _169
REMARK   71  A    between atoms: _169  and  _170
REMARK   72  A    between atoms: _173  and  _175
REMARK   73  A    between atoms: _175  and  _176
REMARK   74  A    between atoms: _175  and  _178
REMARK   75  A    between atoms: _178  and  _179
REMARK   76  A    between atoms: _179  and  _180
REMARK   77  A    between atoms: _180  and  _181
REMARK   78  A    between atoms: _190  and  _192
REMARK   79  A    between atoms: _192  and  _193
REMARK   80  A    between atoms: _192  and  _195
REMARK   81  A    between atoms: _195  and  _196
REMARK   82  A    between atoms: _199  and  _201
REMARK   83  A    between atoms: _201  and  _202
REMARK   84  A    between atoms: _201  and  _204
REMARK   85  A    between atoms: _204  and  _205
REMARK   86  A    between atoms: _208  and  _210
REMARK   87  A    between atoms: _210  and  _211
REMARK   88  A    between atoms: _210  and  _213
REMARK   89  A    between atoms: _213  and  _214
REMARK   90  A    between atoms: _214  and  _215
REMARK   91  A    between atoms: _215  and  _216
REMARK   92  A    between atoms: _216  and  _217
REMARK   93  A    between atoms: _221  and  _223
REMARK   94  A    between atoms: _223  and  _224
REMARK   95  A    between atoms: _223  and  _226
REMARK   96  A    between atoms: _226  and  _227
REMARK   97  A    between atoms: _232  and  _234
REMARK   98  A    between atoms: _234  and  _235
REMARK   99  A    between atoms: _237  and  _239
REMARK  100  A    between atoms: _239  and  _240
REMARK  101  A    between atoms: _239  and  _242
REMARK  102  A    between atoms: _242  and  _243
REMARK  103  A    between atoms: _246  and  _248
REMARK  104  A    between atoms: _248  and  _249
REMARK  105  A    between atoms: _248  and  _251
REMARK  106  A    between atoms: _251  and  _252
REMARK  107  A    between atoms: _255  and  _257
REMARK  108  A    between atoms: _257  and  _258
REMARK  109  A    between atoms: _257  and  _260
REMARK  110  A    between atoms: _260  and  _261
REMARK  111  A    between atoms: _264  and  _266
REMARK  112  A    between atoms: _266  and  _267
REMARK  113  A    between atoms: _266  and  _269
REMARK  114  A    between atoms: _269  and  _270
REMARK  115  A    between atoms: _270  and  _271
REMARK  116  A    between atoms: _271  and  _272
REMARK  117  A    between atoms: _281  and  _283
REMARK  118  A    between atoms: _283  and  _284
REMARK  119  A    between atoms: _286  and  _288
REMARK  120  A    between atoms: _288  and  _289
REMARK  121  A    between atoms: _288  and  _291
REMARK  122  A    between atoms: _291  and  _292
REMARK  123  A    between atoms: _295  and  _297
REMARK  124  A    between atoms: _297  and  _298
REMARK  125  A    between atoms: _297  and  _300
REMARK  126  A    between atoms: _300  and  _301
REMARK  127  A    between atoms: _303  and  _305
REMARK  128  A    between atoms: _305  and  _306
REMARK  129  A    between atoms: _305  and  _308
REMARK  130  A    between atoms: _308  and  _309
REMARK  131  A    between atoms: _313  and  MN_386
REMARK  132  A    between atoms: _314  and  _316
REMARK  133  A    between atoms: _316  and  _317
REMARK  134  A    between atoms: _320  and  _322
REMARK  135  A    between atoms: _322  and  _323
REMARK  136  A    between atoms: _322  and  _325
REMARK  137  A    between atoms: _325  and  _326
REMARK  138  A    between atoms: _331  and  _333
REMARK  139  A    between atoms: _333  and  _334
REMARK  140  A    between atoms: _333  and  _336
REMARK  141  A    between atoms: _336  and  _337
REMARK  142  A    between atoms: _337  and  _338
REMARK  143  A    between atoms: _340  and  _342
REMARK  144  A    between atoms: _342  and  _343
REMARK  145  A    between atoms: _342  and  _345
REMARK  146  A    between atoms: _345  and  _346
REMARK  147  A    between atoms: _346  and  _347
REMARK  148  A    between atoms: _347  and  _349
REMARK  149  A    between atoms: _349  and  MN_386
REMARK  150  A    between atoms: _350  and  _352
REMARK  151  A    between atoms: _352  and  _353
REMARK  152  A    between atoms: _352  and  _355
REMARK  153  A    between atoms: _355  and  _356
REMARK  154  A    between atoms: _358  and  _360
REMARK  155  A    between atoms: _360  and  _361
REMARK  156  A    between atoms: _360  and  _363
REMARK  157  A    between atoms: _363  and  _364
REMARK  158  A    between atoms: _367  and  _369
REMARK  159  A    between atoms: _369  and  _370
REMARK  160  A    between atoms: _369  and  _372
REMARK  161  A    between atoms: _372  and  _373
REMARK  162  A    between atoms: _373  and  _375
REMARK  163  A    between atoms: _375  and  MN_386
REMARK  164  A    between atoms: _376  and  _378
REMARK  165  A    between atoms: _378  and  _379
REMARK  166  A    between atoms: _378  and  _381
REMARK  167  A    between atoms: _381  and  _382
REMARK  168  A    between atoms: _382  and  _383
REMARK                            x       y       z     vdW  Elec       q    Type
REMARK                         _______ _______ _______ _____ _____    ______ ____
ROOT
ATOM      1  O   HOH     1      47.711 -27.750   0.321  0.00  0.00    +0.000 OA
ENDROOT
TORSDOF 0
REMARK  Name = ../refined-set-2016/4umb/4umb_pocket.pdb
REMARK  168 active torsions:
REMARK  status: ('A' for Active; 'I' for Inactive)
REMARK    1  A    between atoms: _1  and  _3
REMARK    2  A    between atoms: _3  and  _4
REMARK    3  A    between atoms: _3  and  _6
REMARK    4  A    between atoms: _6  and  _7
REMARK    5  A    between atoms: _11  and  _12
REMARK    6  A    between atoms: _17  and  _19
REMARK    7  A    between atoms: _19  and  _20
REMARK    8  A    between atoms: _19  and  _22
REMARK    9  A    between atoms: _22  and  _23
REMARK   10  A    between atoms: _23  and  MN_386
REMARK   11  A    between atoms: _24  and  _26
REMARK   12  A    between atoms: _26  and  _27
REMARK   13  A    between atoms: _26  and  _29
REMARK   14  A    between atoms: _29  and  _30
REMARK   15  A    between atoms: _32  and  _34
REMARK   16  A    between atoms: _34  and  _35
REMARK   17  A    between atoms: _34  and  _37
REMARK   18  A    between atoms: _37  and  _38
REMARK   19  A    between atoms: _38  and  _39
REMARK   20  A    between atoms: _39  and  _40
REMARK   21  A    between atoms: _49  and  _51
REMARK   22  A    between atoms: _51  and  _52
REMARK   23  A    between atoms: _51  and  _54
REMARK   24  A    between atoms: _54  and  _55
REMARK   25  A    between atoms: _60  and  _61
REMARK   26  A    between atoms: _63  and  _65
REMARK   27  A    between atoms: _65  and  _66
REMARK   28  A    between atoms: _65  and  _68
REMARK   29  A    between atoms: _68  and  _69
REMARK   30  A    between atoms: _69  and  _70
REMARK   31  A    between atoms: _73  and  _75
REMARK   32  A    between atoms: _75  and  _76
REMARK   33  A    between atoms: _75  and  _78
REMARK   34  A    between atoms: _78  and  _79
REMARK   35  A    between atoms: _79  and  _80
REMARK   36  A    between atoms: _80  and  _81
REMARK   37  A    between atoms: _81  and  _82
REMARK   38  A    between atoms: _87  and  _88
REMARK   39  A    between atoms: _93  and  _95
REMARK   40  A    between atoms: _95  and  _96
REMARK   41  A    between atoms: _95  and  _98
REMARK   42  A    between atoms: _98  and  _99
REMARK   43  A    between atoms: _99  and  _100
REMARK   44  A    between atoms: _100  and  _101
REMARK   45  A    between atoms: _110  and  _112
REMARK   46  A    between atoms: _112  and  _113
REMARK   47  A    between atoms: _112  and  _115
REMARK   48  A    between atoms: _115  and  _116
REMARK   49  A    between atoms: _119  and  _121
REMARK   50  A    between atoms: _121  and  _122
REMARK   51  A    between atoms: _121  and  _124
REMARK   52  A    between atoms: _124  and  _125
REMARK   53  A    between atoms: _128  and  _130
REMARK   54  A    between atoms: _130  and  _131
REMARK   55  A    between atoms: _130  and  _133
REMARK   56  A    between atoms: _133  and  _134
REMARK   57  A    between atoms: _134  and  _135
REMARK   58  A    between atoms: _138  and  _140
REMARK   59  A    between atoms: _140  and  _141
REMARK   60  A    between atoms: _140  and  _143
REMARK   61  A    between atoms: _143  and  _144
REMARK   62  A    between atoms: _147  and  _149
REMARK   63  A    between atoms: _149  and  _150
REMARK   64  A    between atoms: _153  and  _155
REMARK   65  A    between atoms: _155  and  _156
REMARK   66  A    between atoms: _155  and  _158
REMARK   67  A    between atoms: _158  and  _159
REMARK   68  A    between atoms: _162  and  _164
REMARK   69  A    between atoms: _164  and  _165
REMARK   70  A    between atoms: _167  and  _169
REMARK   71  A    between atoms: _169  and  _170
REMARK   72  A    between atoms: _173  and  _175
REMARK   73  A    between atoms: _175  and  _176
REMARK   74  A    between atoms: _175  and  _178
REMARK   75  A    between atoms: _178  and  _179
REMARK   76  A    between atoms: _179  and  _180
REMARK   77  A    between atoms: _180  and  _181
REMARK   78  A    between atoms: _190  and  _192
REMARK   79  A    between atoms: _192  and  _193
REMARK   80  A    between atoms: _192  and  _195
REMARK   81  A    between atoms: _195  and  _196
REMARK   82  A    between atoms: _199  and  _201
REMARK   83  A    between atoms: _201  and  _202
REMARK   84  A    between atoms: _201  and  _204
REMARK   85  A    between atoms: _204  and  _205
REMARK   86  A    between atoms: _208  and  _210
REMARK   87  A    between atoms: _210  and  _211
REMARK   88  A    between atoms: _210  and  _213
REMARK   89  A    between atoms: _213  and  _214
REMARK   90  A    between atoms: _214  and  _215
REMARK   91  A    between atoms: _215  and  _216
REMARK   92  A    between atoms: _216  and  _217
REMARK   93  A    between atoms: _221  and  _223
REMARK   94  A    between atoms: _223  and  _224
REMARK   95  A    between atoms: _223  and  _226
REMARK   96  A    between atoms: _226  and  _227
REMARK   97  A    between atoms: _232  and  _234
REMARK   98  A    between atoms: _234  and  _235
REMARK   99  A    between atoms: _237  and  _239
REMARK  100  A    between atoms: _239  and  _240
REMARK  101  A    between atoms: _239  and  _242
REMARK  102  A    between atoms: _242  and  _243
REMARK  103  A    between atoms: _246  and  _248
REMARK  104  A    between atoms: _248  and  _249
REMARK  105  A    between atoms: _248  and  _251
REMARK  106  A    between atoms: _251  and  _252
REMARK  107  A    between atoms: _255  and  _257
REMARK  108  A    between atoms: _257  and  _258
REMARK  109  A    between atoms: _257  and  _260
REMARK  110  A    between atoms: _260  and  _261
REMARK  111  A    between atoms: _264  and  _266
REMARK  112  A    between atoms: _266  and  _267
REMARK  113  A    between atoms: _266  and  _269
REMARK  114  A    between atoms: _269  and  _270
REMARK  115  A    between atoms: _270  and  _271
REMARK  116  A    between atoms: _271  and  _272
REMARK  117  A    between atoms: _281  and  _283
REMARK  118  A    between atoms: _283  and  _284
REMARK  119  A    between atoms: _286  and  _288
REMARK  120  A    between atoms: _288  and  _289
REMARK  121  A    between atoms: _288  and  _291
REMARK  122  A    between atoms: _291  and  _292
REMARK  123  A    between atoms: _295  and  _297
REMARK  124  A    between atoms: _297  and  _298
REMARK  125  A    between atoms: _297  and  _300
REMARK  126  A    between atoms: _300  and  _301
REMARK  127  A    between atoms: _303  and  _305
REMARK  128  A    between atoms: _305  and  _306
REMARK  129  A    between atoms: _305  and  _308
REMARK  130  A    between atoms: _308  and  _309
REMARK  131  A    between atoms: _313  and  MN_386
REMARK  132  A    between atoms: _314  and  _316
REMARK  133  A    between atoms: _316  and  _317
REMARK  134  A    between atoms: _320  and  _322
REMARK  135  A    between atoms: _322  and  _323
REMARK  136  A    between atoms: _322  and  _325
REMARK  137  A    between atoms: _325  and  _326
REMARK  138  A    between atoms: _331  and  _333
REMARK  139  A    between atoms: _333  and  _334
REMARK  140  A    between atoms: _333  and  _336
REMARK  141  A    between atoms: _336  and  _337
REMARK  142  A    between atoms: _337  and  _338
REMARK  143  A    between atoms: _340  and  _342
REMARK  144  A    between atoms: _342  and  _343
REMARK  145  A    between atoms: _342  and  _345
REMARK  146  A    between atoms: _345  and  _346
REMARK  147  A    between atoms: _346  and  _347
REMARK  148  A    between atoms: _347  and  _349
REMARK  149  A    between atoms: _349  and  MN_386
REMARK  150  A    between atoms: _350  and  _352
REMARK  151  A    between atoms: _352  and  _353
REMARK  152  A    between atoms: _352  and  _355
REMARK  153  A    between atoms: _355  and  _356
REMARK  154  A    between atoms: _358  and  _360
REMARK  155  A    between atoms: _360  and  _361
REMARK  156  A    between atoms: _360  and  _363
REMARK  157  A    between atoms: _363  and  _364
REMARK  158  A    between atoms: _367  and  _369
REMARK  159  A    between atoms: _369  and  _370
REMARK  160  A    between atoms: _369  and  _372
REMARK  161  A    between atoms: _372  and  _373
REMARK  162  A    between atoms: _373  and  _375
REMARK  163  A    between atoms: _375  and  MN_386
REMARK  164  A    between atoms: _376  and  _378
REMARK  165  A    between atoms: _378  and  _379
REMARK  166  A    between atoms: _378  and  _381
REMARK  167  A    between atoms: _381  and  _382
REMARK  168  A    between atoms: _382  and  _383
REMARK                            x       y       z     vdW  Elec       q    Type
REMARK                         _______ _______ _______ _____ _____    ______ ____
ROOT
ATOM      1  O   HOH     1      42.531 -27.526  -3.249  0.00  0.00    +0.000 OA
ENDROOT
TORSDOF 0
REMARK  Name = ../refined-set-2016/4umb/4umb_pocket.pdb
REMARK  168 active torsions:
REMARK  status: ('A' for Active; 'I' for Inactive)
REMARK    1  A    between atoms: _1  and  _3
REMARK    2  A    between atoms: _3  and  _4
REMARK    3  A    between atoms: _3  and  _6
REMARK    4  A    between atoms: _6  and  _7
REMARK    5  A    between atoms: _11  and  _12
REMARK    6  A    between atoms: _17  and  _19
REMARK    7  A    between atoms: _19  and  _20
REMARK    8  A    between atoms: _19  and  _22
REMARK    9  A    between atoms: _22  and  _23
REMARK   10  A    between atoms: _23  and  MN_386
REMARK   11  A    between atoms: _24  and  _26
REMARK   12  A    between atoms: _26  and  _27
REMARK   13  A    between atoms: _26  and  _29
REMARK   14  A    between atoms: _29  and  _30
REMARK   15  A    between atoms: _32  and  _34
REMARK   16  A    between atoms: _34  and  _35
REMARK   17  A    between atoms: _34  and  _37
REMARK   18  A    between atoms: _37  and  _38
REMARK   19  A    between atoms: _38  and  _39
REMARK   20  A    between atoms: _39  and  _40
REMARK   21  A    between atoms: _49  and  _51
REMARK   22  A    between atoms: _51  and  _52
REMARK   23  A    between atoms: _51  and  _54
REMARK   24  A    between atoms: _54  and  _55
REMARK   25  A    between atoms: _60  and  _61
REMARK   26  A    between atoms: _63  and  _65
REMARK   27  A    between atoms: _65  and  _66
REMARK   28  A    between atoms: _65  and  _68
REMARK   29  A    between atoms: _68  and  _69
REMARK   30  A    between atoms: _69  and  _70
REMARK   31  A    between atoms: _73  and  _75
REMARK   32  A    between atoms: _75  and  _76
REMARK   33  A    between atoms: _75  and  _78
REMARK   34  A    between atoms: _78  and  _79
REMARK   35  A    between atoms: _79  and  _80
REMARK   36  A    between atoms: _80  and  _81
REMARK   37  A    between atoms: _81  and  _82
REMARK   38  A    between atoms: _87  and  _88
REMARK   39  A    between atoms: _93  and  _95
REMARK   40  A    between atoms: _95  and  _96
REMARK   41  A    between atoms: _95  and  _98
REMARK   42  A    between atoms: _98  and  _99
REMARK   43  A    between atoms: _99  and  _100
REMARK   44  A    between atoms: _100  and  _101
REMARK   45  A    between atoms: _110  and  _112
REMARK   46  A    between atoms: _112  and  _113
REMARK   47  A    between atoms: _112  and  _115
REMARK   48  A    between atoms: _115  and  _116
REMARK   49  A    between atoms: _119  and  _121
REMARK   50  A    between atoms: _121  and  _122
REMARK   51  A    between atoms: _121  and  _124
REMARK   52  A    between atoms: _124  and  _125
REMARK   53  A    between atoms: _128  and  _130
REMARK   54  A    between atoms: _130  and  _131
REMARK   55  A    between atoms: _130  and  _133
REMARK   56  A    between atoms: _133  and  _134
REMARK   57  A    between atoms: _134  and  _135
REMARK   58  A    between atoms: _138  and  _140
REMARK   59  A    between atoms: _140  and  _141
REMARK   60  A    between atoms: _140  and  _143
REMARK   61  A    between atoms: _143  and  _144
REMARK   62  A    between atoms: _147  and  _149
REMARK   63  A    between atoms: _149  and  _150
REMARK   64  A    between atoms: _153  and  _155
REMARK   65  A    between atoms: _155  and  _156
REMARK   66  A    between atoms: _155  and  _158
REMARK   67  A    between atoms: _158  and  _159
REMARK   68  A    between atoms: _162  and  _164
REMARK   69  A    between atoms: _164  and  _165
REMARK   70  A    between atoms: _167  and  _169
REMARK   71  A    between atoms: _169  and  _170
REMARK   72  A    between atoms: _173  and  _175
REMARK   73  A    between atoms: _175  and  _176
REMARK   74  A    between atoms: _175  and  _178
REMARK   75  A    between atoms: _178  and  _179
REMARK   76  A    between atoms: _179  and  _180
REMARK   77  A    between atoms: _180  and  _181
REMARK   78  A    between atoms: _190  and  _192
REMARK   79  A    between atoms: _192  and  _193
REMARK   80  A    between atoms: _192  and  _195
REMARK   81  A    between atoms: _195  and  _196
REMARK   82  A    between atoms: _199  and  _201
REMARK   83  A    between atoms: _201  and  _202
REMARK   84  A    between atoms: _201  and  _204
REMARK   85  A    between atoms: _204  and  _205
REMARK   86  A    between atoms: _208  and  _210
REMARK   87  A    between atoms: _210  and  _211
REMARK   88  A    between atoms: _210  and  _213
REMARK   89  A    between atoms: _213  and  _214
REMARK   90  A    between atoms: _214  and  _215
REMARK   91  A    between atoms: _215  and  _216
REMARK   92  A    between atoms: _216  and  _217
REMARK   93  A    between atoms: _221  and  _223
REMARK   94  A    between atoms: _223  and  _224
REMARK   95  A    between atoms: _223  and  _226
REMARK   96  A    between atoms: _226  and  _227
REMARK   97  A    between atoms: _232  and  _234
REMARK   98  A    between atoms: _234  and  _235
REMARK   99  A    between atoms: _237  and  _239
REMARK  100  A    between atoms: _239  and  _240
REMARK  101  A    between atoms: _239  and  _242
REMARK  102  A    between atoms: _242  and  _243
REMARK  103  A    between atoms: _246  and  _248
REMARK  104  A    between atoms: _248  and  _249
REMARK  105  A    between atoms: _248  and  _251
REMARK  106  A    between atoms: _251  and  _252
REMARK  107  A    between atoms: _255  and  _257
REMARK  108  A    between atoms: _257  and  _258
REMARK  109  A    between atoms: _257  and  _260
REMARK  110  A    between atoms: _260  and  _261
REMARK  111  A    between atoms: _264  and  _266
REMARK  112  A    between atoms: _266  and  _267
REMARK  113  A    between atoms: _266  and  _269
REMARK  114  A    between atoms: _269  and  _270
REMARK  115  A    between atoms: _270  and  _271
REMARK  116  A    between atoms: _271  and  _272
REMARK  117  A    between atoms: _281  and  _283
REMARK  118  A    between atoms: _283  and  _284
REMARK  119  A    between atoms: _286  and  _288
REMARK  120  A    between atoms: _288  and  _289
REMARK  121  A    between atoms: _288  and  _291
REMARK  122  A    between atoms: _291  and  _292
REMARK  123  A    between atoms: _295  and  _297
REMARK  124  A    between atoms: _297  and  _298
REMARK  125  A    between atoms: _297  and  _300
REMARK  126  A    between atoms: _300  and  _301
REMARK  127  A    between atoms: _303  and  _305
REMARK  128  A    between atoms: _305  and  _306
REMARK  129  A    between atoms: _305  and  _308
REMARK  130  A    between atoms: _308  and  _309
REMARK  131  A    between atoms: _313  and  MN_386
REMARK  132  A    between atoms: _314  and  _316
REMARK  133  A    between atoms: _316  and  _317
REMARK  134  A    between atoms: _320  and  _322
REMARK  135  A    between atoms: _322  and  _323
REMARK  136  A    between atoms: _322  and  _325
REMARK  137  A    between atoms: _325  and  _326
REMARK  138  A    between atoms: _331  and  _333
REMARK  139  A    between atoms: _333  and  _334
REMARK  140  A    between atoms: _333  and  _336
REMARK  141  A    between atoms: _336  and  _337
REMARK  142  A    between atoms: _337  and  _338
REMARK  143  A    between atoms: _340  and  _342
REMARK  144  A    between atoms: _342  and  _343
REMARK  145  A    between atoms: _342  and  _345
REMARK  146  A    between atoms: _345  and  _346
REMARK  147  A    between atoms: _346  and  _347
REMARK  148  A    between atoms: _347  and  _349
REMARK  149  A    between atoms: _349  and  MN_386
REMARK  150  A    between atoms: _350  and  _352
REMARK  151  A    between atoms: _352  and  _353
REMARK  152  A    between atoms: _352  and  _355
REMARK  153  A    between atoms: _355  and  _356
REMARK  154  A    between atoms: _358  and  _360
REMARK  155  A    between atoms: _360  and  _361
REMARK  156  A    between atoms: _360  and  _363
REMARK  157  A    between atoms: _363  and  _364
REMARK  158  A    between atoms: _367  and  _369
REMARK  159  A    between atoms: _369  and  _370
REMARK  160  A    between atoms: _369  and  _372
REMARK  161  A    between atoms: _372  and  _373
REMARK  162  A    between atoms: _373  and  _375
REMARK  163  A    between atoms: _375  and  MN_386
REMARK  164  A    between atoms: _376  and  _378
REMARK  165  A    between atoms: _378  and  _379
REMARK  166  A    between atoms: _378  and  _381
REMARK  167  A    between atoms: _381  and  _382
REMARK  168  A    between atoms: _382  and  _383
REMARK                            x       y       z     vdW  Elec       q    Type
REMARK                         _______ _______ _______ _____ _____    ______ ____
ROOT
ATOM      1  O   HOH     1      39.687 -23.791 -11.794  0.00  0.00    +0.000 OA
ENDROOT
TORSDOF 0
