REMARK  Name = ../refined-set-2016/4jz1/4jz1_pocket.pdb
REMARK  225 active torsions:
REMARK  status: ('A' for Active; 'I' for Inactive)
REMARK    1  A    between atoms: _1  and  _5
REMARK    2  A    between atoms: _5  and  _6
REMARK    3  A    between atoms: _5  and  _8
REMARK    4  A    between atoms: _11  and  _13
REMARK    5  A    between atoms: _13  and  _14
REMARK    6  A    between atoms: _13  and  _16
REMARK    7  A    between atoms: _19  and  _21
REMARK    8  A    between atoms: _21  and  _22
REMARK    9  A    between atoms: _21  and  _24
REMARK   10  A    between atoms: _24  and  _25
REMARK   11  A    between atoms: _25  and  _26
REMARK   12  A    between atoms: _31  and  _33
REMARK   13  A    between atoms: _33  and  _34
REMARK   14  A    between atoms: _33  and  _36
REMARK   15  A    between atoms: _36  and  _37
REMARK   16  A    between atoms: _42  and  _44
REMARK   17  A    between atoms: _44  and  _45
REMARK   18  A    between atoms: _44  and  _47
REMARK   19  A    between atoms: _47  and  _48
REMARK   20  A    between atoms: _51  and  _53
REMARK   21  A    between atoms: _53  and  _54
REMARK   22  A    between atoms: _53  and  _56
REMARK   23  A    between atoms: _56  and  _57
REMARK   24  A    between atoms: _57  and  _92
REMARK   25  A    between atoms: _58  and  _60
REMARK   26  A    between atoms: _60  and  _61
REMARK   27  A    between atoms: _63  and  _65
REMARK   28  A    between atoms: _65  and  _66
REMARK   29  A    between atoms: _69  and  _71
REMARK   30  A    between atoms: _71  and  _72
REMARK   31  A    between atoms: _75  and  _77
REMARK   32  A    between atoms: _77  and  _78
REMARK   33  A    between atoms: _77  and  _80
REMARK   34  A    between atoms: _80  and  _81
REMARK   35  A    between atoms: _86  and  _88
REMARK   36  A    between atoms: _88  and  _89
REMARK   37  A    between atoms: _88  and  _91
REMARK   38  A    between atoms: _91  and  _92
REMARK   39  A    between atoms: _93  and  _95
REMARK   40  A    between atoms: _95  and  _96
REMARK   41  A    between atoms: _95  and  _98
REMARK   42  A    between atoms: _98  and  _99
REMARK   43  A    between atoms: _104  and  _105
REMARK   44  A    between atoms: _107  and  _109
REMARK   45  A    between atoms: _109  and  _110
REMARK   46  A    between atoms: _109  and  _112
REMARK   47  A    between atoms: _112  and  _113
REMARK   48  A    between atoms: _116  and  _118
REMARK   49  A    between atoms: _118  and  _119
REMARK   50  A    between atoms: _118  and  _121
REMARK   51  A    between atoms: _121  and  _122
REMARK   52  A    between atoms: _125  and  _127
REMARK   53  A    between atoms: _127  and  _128
REMARK   54  A    between atoms: _127  and  _130
REMARK   55  A    between atoms: _130  and  _131
REMARK   56  A    between atoms: _134  and  _136
REMARK   57  A    between atoms: _136  and  _137
REMARK   58  A    between atoms: _136  and  _139
REMARK   59  A    between atoms: _139  and  _140
REMARK   60  A    between atoms: _145  and  _146
REMARK   61  A    between atoms: _148  and  _150
REMARK   62  A    between atoms: _150  and  _151
REMARK   63  A    between atoms: _150  and  _153
REMARK   64  A    between atoms: _153  and  _154
REMARK   65  A    between atoms: _164  and  _166
REMARK   66  A    between atoms: _166  and  _167
REMARK   67  A    between atoms: _166  and  _169
REMARK   68  A    between atoms: _169  and  _170
REMARK   69  A    between atoms: _175  and  _177
REMARK   70  A    between atoms: _177  and  _178
REMARK   71  A    between atoms: _177  and  _180
REMARK   72  A    between atoms: _180  and  _181
REMARK   73  A    between atoms: _184  and  _186
REMARK   74  A    between atoms: _186  and  _187
REMARK   75  A    between atoms: _186  and  _189
REMARK   76  A    between atoms: _189  and  _190
REMARK   77  A    between atoms: _196  and  _198
REMARK   78  A    between atoms: _198  and  _199
REMARK   79  A    between atoms: _198  and  _201
REMARK   80  A    between atoms: _201  and  _202
REMARK   81  A    between atoms: _205  and  _207
REMARK   82  A    between atoms: _207  and  _208
REMARK   83  A    between atoms: _207  and  _210
REMARK   84  A    between atoms: _210  and  _211
REMARK   85  A    between atoms: _217  and  _219
REMARK   86  A    between atoms: _219  and  _220
REMARK   87  A    between atoms: _219  and  _222
REMARK   88  A    between atoms: _222  and  _223
REMARK   89  A    between atoms: _226  and  _228
REMARK   90  A    between atoms: _228  and  _229
REMARK   91  A    between atoms: _228  and  _231
REMARK   92  A    between atoms: _231  and  _232
REMARK   93  A    between atoms: _235  and  _237
REMARK   94  A    between atoms: _237  and  _238
REMARK   95  A    between atoms: _237  and  _240
REMARK   96  A    between atoms: _243  and  _245
REMARK   97  A    between atoms: _245  and  _246
REMARK   98  A    between atoms: _248  and  _250
REMARK   99  A    between atoms: _250  and  _251
REMARK  100  A    between atoms: _250  and  _253
REMARK  101  A    between atoms: _253  and  _254
REMARK  102  A    between atoms: _259  and  _261
REMARK  103  A    between atoms: _261  and  _262
REMARK  104  A    between atoms: _261  and  _264
REMARK  105  A    between atoms: _264  and  _265
REMARK  106  A    between atoms: _270  and  _271
REMARK  107  A    between atoms: _273  and  _275
REMARK  108  A    between atoms: _275  and  _276
REMARK  109  A    between atoms: _278  and  _280
REMARK  110  A    between atoms: _280  and  _281
REMARK  111  A    between atoms: _280  and  _283
REMARK  112  A    between atoms: _283  and  _284
REMARK  113  A    between atoms: _287  and  _289
REMARK  114  A    between atoms: _289  and  _290
REMARK  115  A    between atoms: _289  and  _292
REMARK  116  A    between atoms: _292  and  _293
REMARK  117  A    between atoms: _297  and  _298
REMARK  118  A    between atoms: _303  and  _305
REMARK  119  A    between atoms: _305  and  _306
REMARK  120  A    between atoms: _305  and  _308
REMARK  121  A    between atoms: _308  and  _309
REMARK  122  A    between atoms: _309  and  _310
REMARK  123  A    between atoms: _315  and  _317
REMARK  124  A    between atoms: _317  and  _318
REMARK  125  A    between atoms: _317  and  _320
REMARK  126  A    between atoms: _320  and  _321
REMARK  127  A    between atoms: _321  and  _322
REMARK  128  A    between atoms: _327  and  _329
REMARK  129  A    between atoms: _329  and  _330
REMARK  130  A    between atoms: _329  and  _332
REMARK  131  A    between atoms: _332  and  _333
REMARK  132  A    between atoms: _336  and  _338
REMARK  133  A    between atoms: _338  and  _339
REMARK  134  A    between atoms: _338  and  _341
REMARK  135  A    between atoms: _341  and  _342
REMARK  136  A    between atoms: _342  and  _343
REMARK  137  A    between atoms: _345  and  _347
REMARK  138  A    between atoms: _347  and  _348
REMARK  139  A    between atoms: _347  and  _350
REMARK  140  A    between atoms: _353  and  _355
REMARK  141  A    between atoms: _355  and  _356
REMARK  142  A    between atoms: _355  and  _358
REMARK  143  A    between atoms: _361  and  _363
REMARK  144  A    between atoms: _363  and  _364
REMARK  145  A    between atoms: _363  and  _366
REMARK  146  A    between atoms: _366  and  _367
REMARK  147  A    between atoms: _370  and  _372
REMARK  148  A    between atoms: _372  and  _373
REMARK  149  A    between atoms: _372  and  _375
REMARK  150  A    between atoms: _375  and  _376
REMARK  151  A    between atoms: _378  and  _380
REMARK  152  A    between atoms: _380  and  _381
REMARK  153  A    between atoms: _380  and  _383
REMARK  154  A    between atoms: _383  and  _384
REMARK  155  A    between atoms: _384  and  _494
REMARK  156  A    between atoms: _385  and  _387
REMARK  157  A    between atoms: _387  and  _388
REMARK  158  A    between atoms: _387  and  _390
REMARK  159  A    between atoms: _390  and  _391
REMARK  160  A    between atoms: _391  and  _392
REMARK  161  A    between atoms: _397  and  _399
REMARK  162  A    between atoms: _399  and  _400
REMARK  163  A    between atoms: _402  and  _404
REMARK  164  A    between atoms: _404  and  _405
REMARK  165  A    between atoms: _404  and  _407
REMARK  166  A    between atoms: _407  and  _408
REMARK  167  A    between atoms: _411  and  _413
REMARK  168  A    between atoms: _413  and  _414
REMARK  169  A    between atoms: _413  and  _416
REMARK  170  A    between atoms: _416  and  _417
REMARK  171  A    between atoms: _419  and  _421
REMARK  172  A    between atoms: _421  and  _422
REMARK  173  A    between atoms: _424  and  _426
REMARK  174  A    between atoms: _426  and  _427
REMARK  175  A    between atoms: _429  and  _431
REMARK  176  A    between atoms: _431  and  _432
REMARK  177  A    between atoms: _431  and  _434
REMARK  178  A    between atoms: _437  and  _439
REMARK  179  A    between atoms: _439  and  _440
REMARK  180  A    between atoms: _439  and  _442
REMARK  181  A    between atoms: _445  and  _447
REMARK  182  A    between atoms: _447  and  _448
REMARK  183  A    between atoms: _447  and  _450
REMARK  184  A    between atoms: _450  and  _451
REMARK  185  A    between atoms: _453  and  _455
REMARK  186  A    between atoms: _455  and  _456
REMARK  187  A    between atoms: _455  and  _458
REMARK  188  A    between atoms: _458  and  _459
REMARK  189  A    between atoms: _469  and  _471
REMARK  190  A    between atoms: _471  and  _472
REMARK  191  A    between atoms: _474  and  _476
REMARK  192  A    between atoms: _476  and  _477
REMARK  193  A    between atoms: _476  and  _479
REMARK  194  A    between atoms: _479  and  _480
REMARK  195  A    between atoms: _483  and  _485
REMARK  196  A    between atoms: _485  and  _486
REMARK  197  A    between atoms: _488  and  _490
REMARK  198  A    between atoms: _490  and  _491
REMARK  199  A    between atoms: _490  and  _493
REMARK  200  A    between atoms: _493  and  _494
REMARK  201  A    between atoms: _495  and  _497
REMARK  202  A    between atoms: _497  and  _498
REMARK  203  A    between atoms: _501  and  _503
REMARK  204  A    between atoms: _503  and  _504
REMARK  205  A    between atoms: _503  and  _506
REMARK  206  A    between atoms: _506  and  _507
REMARK  207  A    between atoms: _507  and  _508
REMARK  208  A    between atoms: _513  and  _515
REMARK  209  A    between atoms: _515  and  _516
REMARK  210  A    between atoms: _515  and  _518
REMARK  211  A    between atoms: _518  and  _519
REMARK  212  A    between atoms: _519  and  _520
REMARK  213  A    between atoms: _520  and  _521
REMARK  214  A    between atoms: _521  and  _522
REMARK  215  A    between atoms: _527  and  _528
REMARK  216  A    between atoms: _533  and  _535
REMARK  217  A    between atoms: _535  and  _536
REMARK  218  A    between atoms: _538  and  _540
REMARK  219  A    between atoms: _540  and  _541
REMARK  220  A    between atoms: _540  and  _543
REMARK  221  A    between atoms: _546  and  _548
REMARK  222  A    between atoms: _548  and  _549
REMARK  223  A    between atoms: _548  and  _551
REMARK  224  A    between atoms: _551  and  _552
REMARK  225  A    between atoms: _557  and  _558
REMARK                            x       y       z     vdW  Elec       q    Type
REMARK                         _______ _______ _______ _____ _____    ______ ____
ROOT
ATOM      1  C   VAL A   1      28.081  57.637  22.089  0.00  0.00    +0.202 C 
ATOM      2  N   VAL A   2      27.900  57.289  23.368  0.00  0.00    -0.301 N 
ATOM      3  H   VAL A   2      26.968  56.938  23.666  0.00  0.00    +0.150 HD
ATOM      4  O   VAL A   1      29.149  58.143  21.627  0.00  0.00    -0.277 OA
ENDROOT
BRANCH   1   5
ATOM      5  CA  VAL A   1      26.902  57.414  21.159  0.00  0.00    +0.013 C 
BRANCH   5   6
ATOM      6  N   VAL A   1      26.584  58.700  20.495  0.00  0.00    +0.387 N 
ATOM      7  H1  VAL A   1      26.342  59.410  21.215  0.00  0.00    -0.089 HD
ATOM      8  H2  VAL A   1      27.411  59.023  19.953  0.00  0.00    -0.089 HD
ATOM      9  H3  VAL A   1      25.777  58.567  19.853  0.00  0.00    -0.089 HD
ENDBRANCH   5   6
BRANCH   5  10
ATOM     10  CB  VAL A   1      27.318  56.319  20.112  0.00  0.00    -0.011 C 
ATOM     11  CG2 VAL A   1      27.714  55.032  20.822  0.00  0.00    -0.002 C 
ATOM     12  CG1 VAL A   1      26.170  56.028  19.144  0.00  0.00    -0.002 C 
ENDBRANCH   5  10
ENDBRANCH   1   5
BRANCH   2  13
ATOM     13  CA  VAL A   2      28.983  57.387  24.374  0.00  0.00    +0.137 C 
BRANCH  13  14
ATOM     14  CB  VAL A   2      28.472  57.813  25.755  0.00  0.00    +0.026 C 
ATOM     15  CG2 VAL A   2      29.640  58.043  26.733  0.00  0.00    +0.002 C 
ATOM     16  CG1 VAL A   2      27.619  59.121  25.666  0.00  0.00    +0.002 C 
ENDBRANCH  13  14
BRANCH  13  17
ATOM     17  C   VAL A   2      29.689  56.042  24.529  0.00  0.00    +0.227 C 
ATOM     18  O   VAL A   2      29.040  55.010  24.656  0.00  0.00    -0.286 OA
ENDBRANCH  13  17
ENDBRANCH   2  13
TORSDOF 6
REMARK  Name = ../refined-set-2016/4jz1/4jz1_pocket.pdb
REMARK  225 active torsions:
REMARK  status: ('A' for Active; 'I' for Inactive)
REMARK    1  A    between atoms: _1  and  _5
REMARK    2  A    between atoms: _5  and  _6
REMARK    3  A    between atoms: _5  and  _8
REMARK    4  A    between atoms: _11  and  _13
REMARK    5  A    between atoms: _13  and  _14
REMARK    6  A    between atoms: _13  and  _16
REMARK    7  A    between atoms: _19  and  _21
REMARK    8  A    between atoms: _21  and  _22
REMARK    9  A    between atoms: _21  and  _24
REMARK   10  A    between atoms: _24  and  _25
REMARK   11  A    between atoms: _25  and  _26
REMARK   12  A    between atoms: _31  and  _33
REMARK   13  A    between atoms: _33  and  _34
REMARK   14  A    between atoms: _33  and  _36
REMARK   15  A    between atoms: _36  and  _37
REMARK   16  A    between atoms: _42  and  _44
REMARK   17  A    between atoms: _44  and  _45
REMARK   18  A    between atoms: _44  and  _47
REMARK   19  A    between atoms: _47  and  _48
REMARK   20  A    between atoms: _51  and  _53
REMARK   21  A    between atoms: _53  and  _54
REMARK   22  A    between atoms: _53  and  _56
REMARK   23  A    between atoms: _56  and  _57
REMARK   24  A    between atoms: _57  and  _92
REMARK   25  A    between atoms: _58  and  _60
REMARK   26  A    between atoms: _60  and  _61
REMARK   27  A    between atoms: _63  and  _65
REMARK   28  A    between atoms: _65  and  _66
REMARK   29  A    between atoms: _69  and  _71
REMARK   30  A    between atoms: _71  and  _72
REMARK   31  A    between atoms: _75  and  _77
REMARK   32  A    between atoms: _77  and  _78
REMARK   33  A    between atoms: _77  and  _80
REMARK   34  A    between atoms: _80  and  _81
REMARK   35  A    between atoms: _86  and  _88
REMARK   36  A    between atoms: _88  and  _89
REMARK   37  A    between atoms: _88  and  _91
REMARK   38  A    between atoms: _91  and  _92
REMARK   39  A    between atoms: _93  and  _95
REMARK   40  A    between atoms: _95  and  _96
REMARK   41  A    between atoms: _95  and  _98
REMARK   42  A    between atoms: _98  and  _99
REMARK   43  A    between atoms: _104  and  _105
REMARK   44  A    between atoms: _107  and  _109
REMARK   45  A    between atoms: _109  and  _110
REMARK   46  A    between atoms: _109  and  _112
REMARK   47  A    between atoms: _112  and  _113
REMARK   48  A    between atoms: _116  and  _118
REMARK   49  A    between atoms: _118  and  _119
REMARK   50  A    between atoms: _118  and  _121
REMARK   51  A    between atoms: _121  and  _122
REMARK   52  A    between atoms: _125  and  _127
REMARK   53  A    between atoms: _127  and  _128
REMARK   54  A    between atoms: _127  and  _130
REMARK   55  A    between atoms: _130  and  _131
REMARK   56  A    between atoms: _134  and  _136
REMARK   57  A    between atoms: _136  and  _137
REMARK   58  A    between atoms: _136  and  _139
REMARK   59  A    between atoms: _139  and  _140
REMARK   60  A    between atoms: _145  and  _146
REMARK   61  A    between atoms: _148  and  _150
REMARK   62  A    between atoms: _150  and  _151
REMARK   63  A    between atoms: _150  and  _153
REMARK   64  A    between atoms: _153  and  _154
REMARK   65  A    between atoms: _164  and  _166
REMARK   66  A    between atoms: _166  and  _167
REMARK   67  A    between atoms: _166  and  _169
REMARK   68  A    between atoms: _169  and  _170
REMARK   69  A    between atoms: _175  and  _177
REMARK   70  A    between atoms: _177  and  _178
REMARK   71  A    between atoms: _177  and  _180
REMARK   72  A    between atoms: _180  and  _181
REMARK   73  A    between atoms: _184  and  _186
REMARK   74  A    between atoms: _186  and  _187
REMARK   75  A    between atoms: _186  and  _189
REMARK   76  A    between atoms: _189  and  _190
REMARK   77  A    between atoms: _196  and  _198
REMARK   78  A    between atoms: _198  and  _199
REMARK   79  A    between atoms: _198  and  _201
REMARK   80  A    between atoms: _201  and  _202
REMARK   81  A    between atoms: _205  and  _207
REMARK   82  A    between atoms: _207  and  _208
REMARK   83  A    between atoms: _207  and  _210
REMARK   84  A    between atoms: _210  and  _211
REMARK   85  A    between atoms: _217  and  _219
REMARK   86  A    between atoms: _219  and  _220
REMARK   87  A    between atoms: _219  and  _222
REMARK   88  A    between atoms: _222  and  _223
REMARK   89  A    between atoms: _226  and  _228
REMARK   90  A    between atoms: _228  and  _229
REMARK   91  A    between atoms: _228  and  _231
REMARK   92  A    between atoms: _231  and  _232
REMARK   93  A    between atoms: _235  and  _237
REMARK   94  A    between atoms: _237  and  _238
REMARK   95  A    between atoms: _237  and  _240
REMARK   96  A    between atoms: _243  and  _245
REMARK   97  A    between atoms: _245  and  _246
REMARK   98  A    between atoms: _248  and  _250
REMARK   99  A    between atoms: _250  and  _251
REMARK  100  A    between atoms: _250  and  _253
REMARK  101  A    between atoms: _253  and  _254
REMARK  102  A    between atoms: _259  and  _261
REMARK  103  A    between atoms: _261  and  _262
REMARK  104  A    between atoms: _261  and  _264
REMARK  105  A    between atoms: _264  and  _265
REMARK  106  A    between atoms: _270  and  _271
REMARK  107  A    between atoms: _273  and  _275
REMARK  108  A    between atoms: _275  and  _276
REMARK  109  A    between atoms: _278  and  _280
REMARK  110  A    between atoms: _280  and  _281
REMARK  111  A    between atoms: _280  and  _283
REMARK  112  A    between atoms: _283  and  _284
REMARK  113  A    between atoms: _287  and  _289
REMARK  114  A    between atoms: _289  and  _290
REMARK  115  A    between atoms: _289  and  _292
REMARK  116  A    between atoms: _292  and  _293
REMARK  117  A    between atoms: _297  and  _298
REMARK  118  A    between atoms: _303  and  _305
REMARK  119  A    between atoms: _305  and  _306
REMARK  120  A    between atoms: _305  and  _308
REMARK  121  A    between atoms: _308  and  _309
REMARK  122  A    between atoms: _309  and  _310
REMARK  123  A    between atoms: _315  and  _317
REMARK  124  A    between atoms: _317  and  _318
REMARK  125  A    between atoms: _317  and  _320
REMARK  126  A    between atoms: _320  and  _321
REMARK  127  A    between atoms: _321  and  _322
REMARK  128  A    between atoms: _327  and  _329
REMARK  129  A    between atoms: _329  and  _330
REMARK  130  A    between atoms: _329  and  _332
REMARK  131  A    between atoms: _332  and  _333
REMARK  132  A    between atoms: _336  and  _338
REMARK  133  A    between atoms: _338  and  _339
REMARK  134  A    between atoms: _338  and  _341
REMARK  135  A    between atoms: _341  and  _342
REMARK  136  A    between atoms: _342  and  _343
REMARK  137  A    between atoms: _345  and  _347
REMARK  138  A    between atoms: _347  and  _348
REMARK  139  A    between atoms: _347  and  _350
REMARK  140  A    between atoms: _353  and  _355
REMARK  141  A    between atoms: _355  and  _356
REMARK  142  A    between atoms: _355  and  _358
REMARK  143  A    between atoms: _361  and  _363
REMARK  144  A    between atoms: _363  and  _364
REMARK  145  A    between atoms: _363  and  _366
REMARK  146  A    between atoms: _366  and  _367
REMARK  147  A    between atoms: _370  and  _372
REMARK  148  A    between atoms: _372  and  _373
REMARK  149  A    between atoms: _372  and  _375
REMARK  150  A    between atoms: _375  and  _376
REMARK  151  A    between atoms: _378  and  _380
REMARK  152  A    between atoms: _380  and  _381
REMARK  153  A    between atoms: _380  and  _383
REMARK  154  A    between atoms: _383  and  _384
REMARK  155  A    between atoms: _384  and  _494
REMARK  156  A    between atoms: _385  and  _387
REMARK  157  A    between atoms: _387  and  _388
REMARK  158  A    between atoms: _387  and  _390
REMARK  159  A    between atoms: _390  and  _391
REMARK  160  A    between atoms: _391  and  _392
REMARK  161  A    between atoms: _397  and  _399
REMARK  162  A    between atoms: _399  and  _400
REMARK  163  A    between atoms: _402  and  _404
REMARK  164  A    between atoms: _404  and  _405
REMARK  165  A    between atoms: _404  and  _407
REMARK  166  A    between atoms: _407  and  _408
REMARK  167  A    between atoms: _411  and  _413
REMARK  168  A    between atoms: _413  and  _414
REMARK  169  A    between atoms: _413  and  _416
REMARK  170  A    between atoms: _416  and  _417
REMARK  171  A    between atoms: _419  and  _421
REMARK  172  A    between atoms: _421  and  _422
REMARK  173  A    between atoms: _424  and  _426
REMARK  174  A    between atoms: _426  and  _427
REMARK  175  A    between atoms: _429  and  _431
REMARK  176  A    between atoms: _431  and  _432
REMARK  177  A    between atoms: _431  and  _434
REMARK  178  A    between atoms: _437  and  _439
REMARK  179  A    between atoms: _439  and  _440
REMARK  180  A    between atoms: _439  and  _442
REMARK  181  A    between atoms: _445  and  _447
REMARK  182  A    between atoms: _447  and  _448
REMARK  183  A    between atoms: _447  and  _450
REMARK  184  A    between atoms: _450  and  _451
REMARK  185  A    between atoms: _453  and  _455
REMARK  186  A    between atoms: _455  and  _456
REMARK  187  A    between atoms: _455  and  _458
REMARK  188  A    between atoms: _458  and  _459
REMARK  189  A    between atoms: _469  and  _471
REMARK  190  A    between atoms: _471  and  _472
REMARK  191  A    between atoms: _474  and  _476
REMARK  192  A    between atoms: _476  and  _477
REMARK  193  A    between atoms: _476  and  _479
REMARK  194  A    between atoms: _479  and  _480
REMARK  195  A    between atoms: _483  and  _485
REMARK  196  A    between atoms: _485  and  _486
REMARK  197  A    between atoms: _488  and  _490
REMARK  198  A    between atoms: _490  and  _491
REMARK  199  A    between atoms: _490  and  _493
REMARK  200  A    between atoms: _493  and  _494
REMARK  201  A    between atoms: _495  and  _497
REMARK  202  A    between atoms: _497  and  _498
REMARK  203  A    between atoms: _501  and  _503
REMARK  204  A    between atoms: _503  and  _504
REMARK  205  A    between atoms: _503  and  _506
REMARK  206  A    between atoms: _506  and  _507
REMARK  207  A    between atoms: _507  and  _508
REMARK  208  A    between atoms: _513  and  _515
REMARK  209  A    between atoms: _515  and  _516
REMARK  210  A    between atoms: _515  and  _518
REMARK  211  A    between atoms: _518  and  _519
REMARK  212  A    between atoms: _519  and  _520
REMARK  213  A    between atoms: _520  and  _521
REMARK  214  A    between atoms: _521  and  _522
REMARK  215  A    between atoms: _527  and  _528
REMARK  216  A    between atoms: _533  and  _535
REMARK  217  A    between atoms: _535  and  _536
REMARK  218  A    between atoms: _538  and  _540
REMARK  219  A    between atoms: _540  and  _541
REMARK  220  A    between atoms: _540  and  _543
REMARK  221  A    between atoms: _546  and  _548
REMARK  222  A    between atoms: _548  and  _549
REMARK  223  A    between atoms: _548  and  _551
REMARK  224  A    between atoms: _551  and  _552
REMARK  225  A    between atoms: _557  and  _558
REMARK                            x       y       z     vdW  Elec       q    Type
REMARK                         _______ _______ _______ _____ _____    ______ ____
ROOT
ATOM      1  CB  GLN A   1      19.124  72.820  11.980  0.00  0.00    +0.035 C 
ENDROOT
BRANCH   1   2
ATOM      2  CA  GLN A   1      20.391  73.164  11.218  0.00  0.00    +0.134 C 
BRANCH   2   3
ATOM      3  N   GLN A   1      20.052  73.559   9.859  0.00  0.00    -0.239 NA
ATOM      4  H   GLN A   1      19.665  72.854   9.199  0.00  0.00    +0.142 HD
ENDBRANCH   2   3
BRANCH   2   5
ATOM      5  C   GLN A   1      21.304  72.011  11.355  0.00  0.00    +0.224 C 
ATOM      6  O   GLN A   1      21.696  71.700  12.468  0.00  0.00    -0.287 OA
ENDBRANCH   2   5
ENDBRANCH   1   2
BRANCH   1   7
ATOM      7  CG  GLN A   1      18.243  74.020  12.259  0.00  0.00    +0.087 C 
BRANCH   7   8
ATOM      8  CD  GLN A   1      16.933  73.572  12.847  0.00  0.00    +0.219 C 
ATOM      9  OE1 GLN A   1      16.913  72.809  13.792  0.00  0.00    -0.275 OA
ATOM     10  NE2 GLN A   1      15.843  74.001  12.265  0.00  0.00    -0.329 N 
ATOM     11 HE21 GLN A   1      14.912  73.689  12.609  0.00  0.00    +0.145 HD
ATOM     12 HE22 GLN A   1      15.907  74.654  11.458  0.00  0.00    +0.145 HD
ENDBRANCH   7   8
ENDBRANCH   1   7
TORSDOF 5
REMARK  Name = ../refined-set-2016/4jz1/4jz1_pocket.pdb
REMARK  225 active torsions:
REMARK  status: ('A' for Active; 'I' for Inactive)
REMARK    1  A    between atoms: _1  and  _5
REMARK    2  A    between atoms: _5  and  _6
REMARK    3  A    between atoms: _5  and  _8
REMARK    4  A    between atoms: _11  and  _13
REMARK    5  A    between atoms: _13  and  _14
REMARK    6  A    between atoms: _13  and  _16
REMARK    7  A    between atoms: _19  and  _21
REMARK    8  A    between atoms: _21  and  _22
REMARK    9  A    between atoms: _21  and  _24
REMARK   10  A    between atoms: _24  and  _25
REMARK   11  A    between atoms: _25  and  _26
REMARK   12  A    between atoms: _31  and  _33
REMARK   13  A    between atoms: _33  and  _34
REMARK   14  A    between atoms: _33  and  _36
REMARK   15  A    between atoms: _36  and  _37
REMARK   16  A    between atoms: _42  and  _44
REMARK   17  A    between atoms: _44  and  _45
REMARK   18  A    between atoms: _44  and  _47
REMARK   19  A    between atoms: _47  and  _48
REMARK   20  A    between atoms: _51  and  _53
REMARK   21  A    between atoms: _53  and  _54
REMARK   22  A    between atoms: _53  and  _56
REMARK   23  A    between atoms: _56  and  _57
REMARK   24  A    between atoms: _57  and  _92
REMARK   25  A    between atoms: _58  and  _60
REMARK   26  A    between atoms: _60  and  _61
REMARK   27  A    between atoms: _63  and  _65
REMARK   28  A    between atoms: _65  and  _66
REMARK   29  A    between atoms: _69  and  _71
REMARK   30  A    between atoms: _71  and  _72
REMARK   31  A    between atoms: _75  and  _77
REMARK   32  A    between atoms: _77  and  _78
REMARK   33  A    between atoms: _77  and  _80
REMARK   34  A    between atoms: _80  and  _81
REMARK   35  A    between atoms: _86  and  _88
REMARK   36  A    between atoms: _88  and  _89
REMARK   37  A    between atoms: _88  and  _91
REMARK   38  A    between atoms: _91  and  _92
REMARK   39  A    between atoms: _93  and  _95
REMARK   40  A    between atoms: _95  and  _96
REMARK   41  A    between atoms: _95  and  _98
REMARK   42  A    between atoms: _98  and  _99
REMARK   43  A    between atoms: _104  and  _105
REMARK   44  A    between atoms: _107  and  _109
REMARK   45  A    between atoms: _109  and  _110
REMARK   46  A    between atoms: _109  and  _112
REMARK   47  A    between atoms: _112  and  _113
REMARK   48  A    between atoms: _116  and  _118
REMARK   49  A    between atoms: _118  and  _119
REMARK   50  A    between atoms: _118  and  _121
REMARK   51  A    between atoms: _121  and  _122
REMARK   52  A    between atoms: _125  and  _127
REMARK   53  A    between atoms: _127  and  _128
REMARK   54  A    between atoms: _127  and  _130
REMARK   55  A    between atoms: _130  and  _131
REMARK   56  A    between atoms: _134  and  _136
REMARK   57  A    between atoms: _136  and  _137
REMARK   58  A    between atoms: _136  and  _139
REMARK   59  A    between atoms: _139  and  _140
REMARK   60  A    between atoms: _145  and  _146
REMARK   61  A    between atoms: _148  and  _150
REMARK   62  A    between atoms: _150  and  _151
REMARK   63  A    between atoms: _150  and  _153
REMARK   64  A    between atoms: _153  and  _154
REMARK   65  A    between atoms: _164  and  _166
REMARK   66  A    between atoms: _166  and  _167
REMARK   67  A    between atoms: _166  and  _169
REMARK   68  A    between atoms: _169  and  _170
REMARK   69  A    between atoms: _175  and  _177
REMARK   70  A    between atoms: _177  and  _178
REMARK   71  A    between atoms: _177  and  _180
REMARK   72  A    between atoms: _180  and  _181
REMARK   73  A    between atoms: _184  and  _186
REMARK   74  A    between atoms: _186  and  _187
REMARK   75  A    between atoms: _186  and  _189
REMARK   76  A    between atoms: _189  and  _190
REMARK   77  A    between atoms: _196  and  _198
REMARK   78  A    between atoms: _198  and  _199
REMARK   79  A    between atoms: _198  and  _201
REMARK   80  A    between atoms: _201  and  _202
REMARK   81  A    between atoms: _205  and  _207
REMARK   82  A    between atoms: _207  and  _208
REMARK   83  A    between atoms: _207  and  _210
REMARK   84  A    between atoms: _210  and  _211
REMARK   85  A    between atoms: _217  and  _219
REMARK   86  A    between atoms: _219  and  _220
REMARK   87  A    between atoms: _219  and  _222
REMARK   88  A    between atoms: _222  and  _223
REMARK   89  A    between atoms: _226  and  _228
REMARK   90  A    between atoms: _228  and  _229
REMARK   91  A    between atoms: _228  and  _231
REMARK   92  A    between atoms: _231  and  _232
REMARK   93  A    between atoms: _235  and  _237
REMARK   94  A    between atoms: _237  and  _238
REMARK   95  A    between atoms: _237  and  _240
REMARK   96  A    between atoms: _243  and  _245
REMARK   97  A    between atoms: _245  and  _246
REMARK   98  A    between atoms: _248  and  _250
REMARK   99  A    between atoms: _250  and  _251
REMARK  100  A    between atoms: _250  and  _253
REMARK  101  A    between atoms: _253  and  _254
REMARK  102  A    between atoms: _259  and  _261
REMARK  103  A    between atoms: _261  and  _262
REMARK  104  A    between atoms: _261  and  _264
REMARK  105  A    between atoms: _264  and  _265
REMARK  106  A    between atoms: _270  and  _271
REMARK  107  A    between atoms: _273  and  _275
REMARK  108  A    between atoms: _275  and  _276
REMARK  109  A    between atoms: _278  and  _280
REMARK  110  A    between atoms: _280  and  _281
REMARK  111  A    between atoms: _280  and  _283
REMARK  112  A    between atoms: _283  and  _284
REMARK  113  A    between atoms: _287  and  _289
REMARK  114  A    between atoms: _289  and  _290
REMARK  115  A    between atoms: _289  and  _292
REMARK  116  A    between atoms: _292  and  _293
REMARK  117  A    between atoms: _297  and  _298
REMARK  118  A    between atoms: _303  and  _305
REMARK  119  A    between atoms: _305  and  _306
REMARK  120  A    between atoms: _305  and  _308
REMARK  121  A    between atoms: _308  and  _309
REMARK  122  A    between atoms: _309  and  _310
REMARK  123  A    between atoms: _315  and  _317
REMARK  124  A    between atoms: _317  and  _318
REMARK  125  A    between atoms: _317  and  _320
REMARK  126  A    between atoms: _320  and  _321
REMARK  127  A    between atoms: _321  and  _322
REMARK  128  A    between atoms: _327  and  _329
REMARK  129  A    between atoms: _329  and  _330
REMARK  130  A    between atoms: _329  and  _332
REMARK  131  A    between atoms: _332  and  _333
REMARK  132  A    between atoms: _336  and  _338
REMARK  133  A    between atoms: _338  and  _339
REMARK  134  A    between atoms: _338  and  _341
REMARK  135  A    between atoms: _341  and  _342
REMARK  136  A    between atoms: _342  and  _343
REMARK  137  A    between atoms: _345  and  _347
REMARK  138  A    between atoms: _347  and  _348
REMARK  139  A    between atoms: _347  and  _350
REMARK  140  A    between atoms: _353  and  _355
REMARK  141  A    between atoms: _355  and  _356
REMARK  142  A    between atoms: _355  and  _358
REMARK  143  A    between atoms: _361  and  _363
REMARK  144  A    between atoms: _363  and  _364
REMARK  145  A    between atoms: _363  and  _366
REMARK  146  A    between atoms: _366  and  _367
REMARK  147  A    between atoms: _370  and  _372
REMARK  148  A    between atoms: _372  and  _373
REMARK  149  A    between atoms: _372  and  _375
REMARK  150  A    between atoms: _375  and  _376
REMARK  151  A    between atoms: _378  and  _380
REMARK  152  A    between atoms: _380  and  _381
REMARK  153  A    between atoms: _380  and  _383
REMARK  154  A    between atoms: _383  and  _384
REMARK  155  A    between atoms: _384  and  _494
REMARK  156  A    between atoms: _385  and  _387
REMARK  157  A    between atoms: _387  and  _388
REMARK  158  A    between atoms: _387  and  _390
REMARK  159  A    between atoms: _390  and  _391
REMARK  160  A    between atoms: _391  and  _392
REMARK  161  A    between atoms: _397  and  _399
REMARK  162  A    between atoms: _399  and  _400
REMARK  163  A    between atoms: _402  and  _404
REMARK  164  A    between atoms: _404  and  _405
REMARK  165  A    between atoms: _404  and  _407
REMARK  166  A    between atoms: _407  and  _408
REMARK  167  A    between atoms: _411  and  _413
REMARK  168  A    between atoms: _413  and  _414
REMARK  169  A    between atoms: _413  and  _416
REMARK  170  A    between atoms: _416  and  _417
REMARK  171  A    between atoms: _419  and  _421
REMARK  172  A    between atoms: _421  and  _422
REMARK  173  A    between atoms: _424  and  _426
REMARK  174  A    between atoms: _426  and  _427
REMARK  175  A    between atoms: _429  and  _431
REMARK  176  A    between atoms: _431  and  _432
REMARK  177  A    between atoms: _431  and  _434
REMARK  178  A    between atoms: _437  and  _439
REMARK  179  A    between atoms: _439  and  _440
REMARK  180  A    between atoms: _439  and  _442
REMARK  181  A    between atoms: _445  and  _447
REMARK  182  A    between atoms: _447  and  _448
REMARK  183  A    between atoms: _447  and  _450
REMARK  184  A    between atoms: _450  and  _451
REMARK  185  A    between atoms: _453  and  _455
REMARK  186  A    between atoms: _455  and  _456
REMARK  187  A    between atoms: _455  and  _458
REMARK  188  A    between atoms: _458  and  _459
REMARK  189  A    between atoms: _469  and  _471
REMARK  190  A    between atoms: _471  and  _472
REMARK  191  A    between atoms: _474  and  _476
REMARK  192  A    between atoms: _476  and  _477
REMARK  193  A    between atoms: _476  and  _479
REMARK  194  A    between atoms: _479  and  _480
REMARK  195  A    between atoms: _483  and  _485
REMARK  196  A    between atoms: _485  and  _486
REMARK  197  A    between atoms: _488  and  _490
REMARK  198  A    between atoms: _490  and  _491
REMARK  199  A    between atoms: _490  and  _493
REMARK  200  A    between atoms: _493  and  _494
REMARK  201  A    between atoms: _495  and  _497
REMARK  202  A    between atoms: _497  and  _498
REMARK  203  A    between atoms: _501  and  _503
REMARK  204  A    between atoms: _503  and  _504
REMARK  205  A    between atoms: _503  and  _506
REMARK  206  A    between atoms: _506  and  _507
REMARK  207  A    between atoms: _507  and  _508
REMARK  208  A    between atoms: _513  and  _515
REMARK  209  A    between atoms: _515  and  _516
REMARK  210  A    between atoms: _515  and  _518
REMARK  211  A    between atoms: _518  and  _519
REMARK  212  A    between atoms: _519  and  _520
REMARK  213  A    between atoms: _520  and  _521
REMARK  214  A    between atoms: _521  and  _522
REMARK  215  A    between atoms: _527  and  _528
REMARK  216  A    between atoms: _533  and  _535
REMARK  217  A    between atoms: _535  and  _536
REMARK  218  A    between atoms: _538  and  _540
REMARK  219  A    between atoms: _540  and  _541
REMARK  220  A    between atoms: _540  and  _543
REMARK  221  A    between atoms: _546  and  _548
REMARK  222  A    between atoms: _548  and  _549
REMARK  223  A    between atoms: _548  and  _551
REMARK  224  A    between atoms: _551  and  _552
REMARK  225  A    between atoms: _557  and  _558
REMARK                            x       y       z     vdW  Elec       q    Type
REMARK                         _______ _______ _______ _____ _____    ______ ____
ROOT
ATOM      1  CA  GLY A   4      12.035  64.389  16.354  0.00  0.00    +0.160 C 
ENDROOT
BRANCH   1   2
ATOM      2  C   GLY A   4      11.184  65.329  15.485  0.00  0.00    +0.242 C 
ATOM      3  N   TYR A   5       9.895  65.043  15.336  0.00  0.00    -0.297 N 
ATOM      4  H   TYR A   5       9.452  64.321  15.939  0.00  0.00    +0.150 HD
ATOM      5  O   GLY A   4      11.693  66.287  14.922  0.00  0.00    -0.273 OA
BRANCH   3   6
ATOM      6  CA  TYR A   5       9.092  65.743  14.323  0.00  0.00    +0.153 C 
BRANCH   6   7
ATOM      7  C   TYR A   5       7.982  66.592  14.933  0.00  0.00    +0.241 C 
ATOM      8  N   ILE A   6       8.298  67.246  16.051  0.00  0.00    -0.297 N 
ATOM      9  H   ILE A   6       9.263  67.147  16.427  0.00  0.00    +0.150 HD
ATOM     10  O   TYR A   5       6.885  66.677  14.398  0.00  0.00    -0.273 OA
BRANCH   8  11
ATOM     11  CA  ILE A   6       7.343  68.105  16.781  0.00  0.00    +0.149 C 
BRANCH  11  12
ATOM     12  C   ILE A   6       7.685  69.596  16.610  0.00  0.00    +0.241 C 
ATOM     13  O   ILE A   6       8.788  70.012  16.923  0.00  0.00    -0.273 OA
ATOM     14  N   ASP A   7       6.886  70.430  16.433  0.00  0.00    -0.297 N 
ATOM     15  H   ASP A   7       5.893  70.124  16.386  0.00  0.00    +0.150 HD
BRANCH  14  16
ATOM     16  CA  ASP A   7       7.141  71.865  16.271  0.00  0.00    +0.160 C 
BRANCH  16  17
ATOM     17  C   ASP A   7       7.546  72.560  17.556  0.00  0.00    +0.241 C 
ATOM     18  O   ASP A   7       7.128  72.167  18.649  0.00  0.00    -0.273 OA
ATOM     19  N   ASP A   8       8.350  73.603  17.434  0.00  0.00    -0.298 N 
ATOM     20  H   ASP A   8       8.773  73.835  16.513  0.00  0.00    +0.150 HD
BRANCH  19  21
ATOM     21  CA  ASP A   8       8.637  74.424  18.603  0.00  0.00    +0.148 C 
BRANCH  21  22
ATOM     22  C   ASP A   8       8.403  75.851  18.099  0.00  0.00    +0.227 C 
ATOM     23  O   ASP A   8       8.165  76.046  16.904  0.00  0.00    -0.286 OA
ENDBRANCH  21  22
BRANCH  21  24
ATOM     24  CB  ASP A   8      10.029  74.169  19.212  0.00  0.00    +0.142 C 
BRANCH  24  25
ATOM     25  CG  ASP A   8      11.168  74.652  18.363  0.00  0.00    +0.367 C 
ATOM     26  OD2 ASP A   8      12.295  74.164  18.596  0.00  0.00    -0.246 OA
ATOM     27  OD1 ASP A   8      10.965  75.523  17.501  0.00  0.00    -0.246 OA
ENDBRANCH  24  25
ENDBRANCH  21  24
ENDBRANCH  19  21
ENDBRANCH  16  17
BRANCH  16  28
ATOM     28  CB  ASP A   7       5.877  72.602  15.822  0.00  0.00    +0.143 C 
BRANCH  28  29
ATOM     29  CG  ASP A   7       5.421  72.249  14.437  0.00  0.00    +0.367 C 
ATOM     30  OD2 ASP A   7       4.289  72.657  14.081  0.00  0.00    -0.246 OA
ATOM     31  OD1 ASP A   7       6.168  71.599  13.688  0.00  0.00    -0.246 OA
ENDBRANCH  28  29
ENDBRANCH  16  28
ENDBRANCH  14  16
ENDBRANCH  11  12
BRANCH  11  32
ATOM     32  CB  ILE A   6       7.366  67.755  18.288  0.00  0.00    +0.027 C 
ATOM     33  CG2 ILE A   6       6.497  68.712  19.095  0.00  0.00    +0.002 C 
BRANCH  32  34
ATOM     34  CG1 ILE A   6       6.904  66.314  18.493  0.00  0.00    +0.002 C 
ATOM     35  CD1 ILE A   6       7.210  65.788  19.872  0.00  0.00    +0.000 C 
ENDBRANCH  32  34
ENDBRANCH  11  32
ENDBRANCH   8  11
ENDBRANCH   6   7
BRANCH   6  36
ATOM     36  CB  TYR A   5       8.609  64.712  13.281  0.00  0.00    +0.055 C 
BRANCH  36  37
ATOM     37  CG  TYR A   5       9.812  63.900  12.837  0.00  0.00    -0.020 A 
ATOM     38  CD2 TYR A   5      10.029  62.589  13.293  0.00  0.00    -0.001 A 
ATOM     39  CE2 TYR A   5      11.178  61.871  12.911  0.00  0.00    +0.036 A 
ATOM     40  CZ  TYR A   5      12.130  62.499  12.098  0.00  0.00    +0.134 A 
ATOM     41  CE1 TYR A   5      11.929  63.810  11.677  0.00  0.00    +0.036 A 
ATOM     42  CD1 TYR A   5      10.794  64.489  12.050  0.00  0.00    -0.001 A 
BRANCH  40  43
ATOM     43  OH  TYR A   5      13.295  61.864  11.694  0.00  0.00    -0.506 OA
ATOM     44  HH  TYR A   5      13.823  61.608  12.491  0.00  0.00    +0.292 HD
ENDBRANCH  40  43
ENDBRANCH  36  37
ENDBRANCH   6  36
ENDBRANCH   3   6
ENDBRANCH   1   2
BRANCH   1  45
ATOM     45  N   GLY A   4      11.214  63.548  17.233  0.00  0.00    -0.296 N 
ATOM     46  C   HIS A   3      10.645  64.082  18.292  0.00  0.00    +0.241 C 
ATOM     47  O   HIS A   3      10.831  65.214  18.643  0.00  0.00    -0.273 OA
ATOM     48  H   GLY A   4      11.083  62.538  17.020  0.00  0.00    +0.150 HD
BRANCH  46  49
ATOM     49  CA  HIS A   3       9.683  63.211  19.075  0.00  0.00    +0.155 C 
BRANCH  49  50
ATOM     50  N   HIS A   3       9.303  62.021  18.326  0.00  0.00    -0.297 N 
ATOM     51  H   HIS A   3       9.632  61.092  18.658  0.00  0.00    +0.150 HD
ATOM     52  C   ALA A   2       8.545  62.084  17.225  0.00  0.00    +0.241 C 
ATOM     53  O   ALA A   2       8.179  63.162  16.689  0.00  0.00    -0.273 OA
BRANCH  52  54
ATOM     54  CA  ALA A   2       8.098  60.739  16.664  0.00  0.00    +0.149 C 
ATOM     55  CB  ALA A   2       6.791  60.322  17.315  0.00  0.00    +0.031 C 
BRANCH  54  56
ATOM     56  N   ALA A   2       9.109  59.678  16.806  0.00  0.00    -0.297 N 
ATOM     57  H   ALA A   2       8.837  58.796  17.285  0.00  0.00    +0.150 HD
ATOM     58  C   ALA A   1      10.350  59.795  16.352  0.00  0.00    +0.238 C 
ATOM     59  O   ALA A   1      10.761  60.814  15.801  0.00  0.00    -0.274 OA
BRANCH  58  60
ATOM     60  CA  ALA A   1      11.266  58.601  16.534  0.00  0.00    +0.145 C 
ATOM     61  CB  ALA A   1      12.285  58.866  17.638  0.00  0.00    +0.028 C 
BRANCH  60  62
ATOM     62  N   ALA A   1      11.973  58.403  15.289  0.00  0.00    -0.238 NA
ATOM     63  H   ALA A   1      12.717  59.075  15.013  0.00  0.00    +0.142 HD
ENDBRANCH  60  62
ENDBRANCH  58  60
ENDBRANCH  54  56
ENDBRANCH  52  54
ENDBRANCH  49  50
BRANCH  49  64
ATOM     64  CB  HIS A   3      10.224  62.834  20.507  0.00  0.00    +0.076 C 
BRANCH  64  65
ATOM     65  CG  HIS A   3      11.691  62.508  20.567  0.00  0.00    +0.082 A 
ATOM     66  ND1 HIS A   3      12.151  61.245  20.744  0.00  0.00    -0.227 NA
ATOM     67  CE1 HIS A   3      13.514  61.268  20.791  0.00  0.00    +0.199 A 
ATOM     68  NE2 HIS A   3      13.915  62.537  20.667  0.00  0.00    -0.221 NA
ATOM     69  CD2 HIS A   3      12.823  63.331  20.539  0.00  0.00    +0.115 A 
ENDBRANCH  64  65
ENDBRANCH  49  64
ENDBRANCH  46  49
ENDBRANCH   1  45
BRANCH   1  70
ATOM     70  CB  GLY A   4      12.902  63.515  15.437  0.00  0.00    +0.098 C 
BRANCH  70  71
ATOM     71  SG  GLY A   4      14.086  62.476  16.288  0.00  0.00    -0.080 S 
BRANCH  71  72
ATOM     72  SG  HIS A   3      15.911  63.371  16.094  0.00  0.00    -0.080 S 
BRANCH  72  73
ATOM     73  CB  HIS A   3      16.434  62.626  14.501  0.00  0.00    +0.098 C 
BRANCH  73  74
ATOM     74  CA  HIS A   3      17.935  62.778  14.335  0.00  0.00    +0.160 C 
BRANCH  74  75
ATOM     75  C   HIS A   3      18.453  61.716  13.383  0.00  0.00    +0.242 C 
ATOM     76  N   GLY A   4      18.435  60.493  13.902  0.00  0.00    -0.296 N 
ATOM     77  H   GLY A   4      18.213  60.383  14.912  0.00  0.00    +0.150 HD
ATOM     78  O   HIS A   3      18.804  62.004  12.238  0.00  0.00    -0.273 OA
BRANCH  76  79
ATOM     79  CA  GLY A   4      18.716  59.289  13.107  0.00  0.00    +0.163 C 
BRANCH  79  80
ATOM     80  C   GLY A   4      17.419  58.793  12.550  0.00  0.00    +0.229 C 
ATOM     81  O   GLY A   4      16.306  59.113  13.080  0.00  0.00    -0.286 OA
ENDBRANCH  79  80
ENDBRANCH  76  79
ENDBRANCH  74  75
BRANCH  74  84
ATOM     82  C   ALA A   2      18.724  65.027  14.765  0.00  0.00    +0.241 C 
ATOM     83  O   ALA A   2      18.751  64.880  15.980  0.00  0.00    -0.273 OA
ATOM     84  N   HIS A   3      18.295  64.088  13.912  0.00  0.00    -0.296 N 
ATOM     85  H   HIS A   3      18.222  64.325  12.902  0.00  0.00    +0.150 HD
BRANCH  82  86
ATOM     86  CA  ALA A   2      19.025  66.354  14.138  0.00  0.00    +0.148 C 
BRANCH  86  89
ATOM     87  C   ALA A   1      21.086  66.836  12.956  0.00  0.00    +0.239 C 
ATOM     88  O   ALA A   1      21.519  67.446  13.963  0.00  0.00    -0.274 OA
ATOM     89  N   ALA A   2      19.900  66.254  12.935  0.00  0.00    -0.297 N 
ATOM     90  H   ALA A   2      19.582  65.734  12.092  0.00  0.00    +0.150 HD
BRANCH  87  91
ATOM     91  CA  ALA A   1      21.927  66.633  11.739  0.00  0.00    +0.151 C 
BRANCH  91  92
ATOM     92  N   ALA A   1      22.461  67.872  11.202  0.00  0.00    -0.238 NA
ATOM     93  H   ALA A   1      23.486  67.950  11.042  0.00  0.00    +0.142 HD
ENDBRANCH  91  92
BRANCH  91  94
ATOM     94  CB  ALA A   1      23.056  65.677  12.091  0.00  0.00    +0.074 C 
BRANCH  94  95
ATOM     95  CG  ALA A   1      22.564  64.444  12.783  0.00  0.00    +0.082 A 
ATOM     96  CD2 ALA A   1      22.318  64.206  14.107  0.00  0.00    +0.115 A 
ATOM     97  NE2 ALA A   1      21.795  62.975  14.197  0.00  0.00    -0.221 NA
ATOM     98  CE1 ALA A   1      21.768  62.435  12.979  0.00  0.00    +0.199 A 
ATOM     99  ND1 ALA A   1      22.219  63.332  12.120  0.00  0.00    -0.227 NA
ENDBRANCH  94  95
ENDBRANCH  91  94
ENDBRANCH  87  91
ENDBRANCH  86  89
BRANCH  86 100
ATOM    100  CB  ALA A   2      17.656  67.084  13.845  0.00  0.00    +0.027 C 
ATOM    101  CG2 ALA A   2      16.789  67.154  15.127  0.00  0.00    +0.002 C 
BRANCH 100 102
ATOM    102  CG1 ALA A   2      17.887  68.534  13.397  0.00  0.00    +0.002 C 
ATOM    103  CD1 ALA A   2      18.707  69.368  14.397  0.00  0.00    +0.000 C 
ENDBRANCH 100 102
ENDBRANCH  86 100
ENDBRANCH  82  86
ENDBRANCH  74  84
ENDBRANCH  73  74
ENDBRANCH  72  73
ENDBRANCH  71  72
ENDBRANCH  70  71
ENDBRANCH   1  70
TORSDOF 44
REMARK  Name = ../refined-set-2016/4jz1/4jz1_pocket.pdb
REMARK  225 active torsions:
REMARK  status: ('A' for Active; 'I' for Inactive)
REMARK    1  A    between atoms: _1  and  _5
REMARK    2  A    between atoms: _5  and  _6
REMARK    3  A    between atoms: _5  and  _8
REMARK    4  A    between atoms: _11  and  _13
REMARK    5  A    between atoms: _13  and  _14
REMARK    6  A    between atoms: _13  and  _16
REMARK    7  A    between atoms: _19  and  _21
REMARK    8  A    between atoms: _21  and  _22
REMARK    9  A    between atoms: _21  and  _24
REMARK   10  A    between atoms: _24  and  _25
REMARK   11  A    between atoms: _25  and  _26
REMARK   12  A    between atoms: _31  and  _33
REMARK   13  A    between atoms: _33  and  _34
REMARK   14  A    between atoms: _33  and  _36
REMARK   15  A    between atoms: _36  and  _37
REMARK   16  A    between atoms: _42  and  _44
REMARK   17  A    between atoms: _44  and  _45
REMARK   18  A    between atoms: _44  and  _47
REMARK   19  A    between atoms: _47  and  _48
REMARK   20  A    between atoms: _51  and  _53
REMARK   21  A    between atoms: _53  and  _54
REMARK   22  A    between atoms: _53  and  _56
REMARK   23  A    between atoms: _56  and  _57
REMARK   24  A    between atoms: _57  and  _92
REMARK   25  A    between atoms: _58  and  _60
REMARK   26  A    between atoms: _60  and  _61
REMARK   27  A    between atoms: _63  and  _65
REMARK   28  A    between atoms: _65  and  _66
REMARK   29  A    between atoms: _69  and  _71
REMARK   30  A    between atoms: _71  and  _72
REMARK   31  A    between atoms: _75  and  _77
REMARK   32  A    between atoms: _77  and  _78
REMARK   33  A    between atoms: _77  and  _80
REMARK   34  A    between atoms: _80  and  _81
REMARK   35  A    between atoms: _86  and  _88
REMARK   36  A    between atoms: _88  and  _89
REMARK   37  A    between atoms: _88  and  _91
REMARK   38  A    between atoms: _91  and  _92
REMARK   39  A    between atoms: _93  and  _95
REMARK   40  A    between atoms: _95  and  _96
REMARK   41  A    between atoms: _95  and  _98
REMARK   42  A    between atoms: _98  and  _99
REMARK   43  A    between atoms: _104  and  _105
REMARK   44  A    between atoms: _107  and  _109
REMARK   45  A    between atoms: _109  and  _110
REMARK   46  A    between atoms: _109  and  _112
REMARK   47  A    between atoms: _112  and  _113
REMARK   48  A    between atoms: _116  and  _118
REMARK   49  A    between atoms: _118  and  _119
REMARK   50  A    between atoms: _118  and  _121
REMARK   51  A    between atoms: _121  and  _122
REMARK   52  A    between atoms: _125  and  _127
REMARK   53  A    between atoms: _127  and  _128
REMARK   54  A    between atoms: _127  and  _130
REMARK   55  A    between atoms: _130  and  _131
REMARK   56  A    between atoms: _134  and  _136
REMARK   57  A    between atoms: _136  and  _137
REMARK   58  A    between atoms: _136  and  _139
REMARK   59  A    between atoms: _139  and  _140
REMARK   60  A    between atoms: _145  and  _146
REMARK   61  A    between atoms: _148  and  _150
REMARK   62  A    between atoms: _150  and  _151
REMARK   63  A    between atoms: _150  and  _153
REMARK   64  A    between atoms: _153  and  _154
REMARK   65  A    between atoms: _164  and  _166
REMARK   66  A    between atoms: _166  and  _167
REMARK   67  A    between atoms: _166  and  _169
REMARK   68  A    between atoms: _169  and  _170
REMARK   69  A    between atoms: _175  and  _177
REMARK   70  A    between atoms: _177  and  _178
REMARK   71  A    between atoms: _177  and  _180
REMARK   72  A    between atoms: _180  and  _181
REMARK   73  A    between atoms: _184  and  _186
REMARK   74  A    between atoms: _186  and  _187
REMARK   75  A    between atoms: _186  and  _189
REMARK   76  A    between atoms: _189  and  _190
REMARK   77  A    between atoms: _196  and  _198
REMARK   78  A    between atoms: _198  and  _199
REMARK   79  A    between atoms: _198  and  _201
REMARK   80  A    between atoms: _201  and  _202
REMARK   81  A    between atoms: _205  and  _207
REMARK   82  A    between atoms: _207  and  _208
REMARK   83  A    between atoms: _207  and  _210
REMARK   84  A    between atoms: _210  and  _211
REMARK   85  A    between atoms: _217  and  _219
REMARK   86  A    between atoms: _219  and  _220
REMARK   87  A    between atoms: _219  and  _222
REMARK   88  A    between atoms: _222  and  _223
REMARK   89  A    between atoms: _226  and  _228
REMARK   90  A    between atoms: _228  and  _229
REMARK   91  A    between atoms: _228  and  _231
REMARK   92  A    between atoms: _231  and  _232
REMARK   93  A    between atoms: _235  and  _237
REMARK   94  A    between atoms: _237  and  _238
REMARK   95  A    between atoms: _237  and  _240
REMARK   96  A    between atoms: _243  and  _245
REMARK   97  A    between atoms: _245  and  _246
REMARK   98  A    between atoms: _248  and  _250
REMARK   99  A    between atoms: _250  and  _251
REMARK  100  A    between atoms: _250  and  _253
REMARK  101  A    between atoms: _253  and  _254
REMARK  102  A    between atoms: _259  and  _261
REMARK  103  A    between atoms: _261  and  _262
REMARK  104  A    between atoms: _261  and  _264
REMARK  105  A    between atoms: _264  and  _265
REMARK  106  A    between atoms: _270  and  _271
REMARK  107  A    between atoms: _273  and  _275
REMARK  108  A    between atoms: _275  and  _276
REMARK  109  A    between atoms: _278  and  _280
REMARK  110  A    between atoms: _280  and  _281
REMARK  111  A    between atoms: _280  and  _283
REMARK  112  A    between atoms: _283  and  _284
REMARK  113  A    between atoms: _287  and  _289
REMARK  114  A    between atoms: _289  and  _290
REMARK  115  A    between atoms: _289  and  _292
REMARK  116  A    between atoms: _292  and  _293
REMARK  117  A    between atoms: _297  and  _298
REMARK  118  A    between atoms: _303  and  _305
REMARK  119  A    between atoms: _305  and  _306
REMARK  120  A    between atoms: _305  and  _308
REMARK  121  A    between atoms: _308  and  _309
REMARK  122  A    between atoms: _309  and  _310
REMARK  123  A    between atoms: _315  and  _317
REMARK  124  A    between atoms: _317  and  _318
REMARK  125  A    between atoms: _317  and  _320
REMARK  126  A    between atoms: _320  and  _321
REMARK  127  A    between atoms: _321  and  _322
REMARK  128  A    between atoms: _327  and  _329
REMARK  129  A    between atoms: _329  and  _330
REMARK  130  A    between atoms: _329  and  _332
REMARK  131  A    between atoms: _332  and  _333
REMARK  132  A    between atoms: _336  and  _338
REMARK  133  A    between atoms: _338  and  _339
REMARK  134  A    between atoms: _338  and  _341
REMARK  135  A    between atoms: _341  and  _342
REMARK  136  A    between atoms: _342  and  _343
REMARK  137  A    between atoms: _345  and  _347
REMARK  138  A    between atoms: _347  and  _348
REMARK  139  A    between atoms: _347  and  _350
REMARK  140  A    between atoms: _353  and  _355
REMARK  141  A    between atoms: _355  and  _356
REMARK  142  A    between atoms: _355  and  _358
REMARK  143  A    between atoms: _361  and  _363
REMARK  144  A    between atoms: _363  and  _364
REMARK  145  A    between atoms: _363  and  _366
REMARK  146  A    between atoms: _366  and  _367
REMARK  147  A    between atoms: _370  and  _372
REMARK  148  A    between atoms: _372  and  _373
REMARK  149  A    between atoms: _372  and  _375
REMARK  150  A    between atoms: _375  and  _376
REMARK  151  A    between atoms: _378  and  _380
REMARK  152  A    between atoms: _380  and  _381
REMARK  153  A    between atoms: _380  and  _383
REMARK  154  A    between atoms: _383  and  _384
REMARK  155  A    between atoms: _384  and  _494
REMARK  156  A    between atoms: _385  and  _387
REMARK  157  A    between atoms: _387  and  _388
REMARK  158  A    between atoms: _387  and  _390
REMARK  159  A    between atoms: _390  and  _391
REMARK  160  A    between atoms: _391  and  _392
REMARK  161  A    between atoms: _397  and  _399
REMARK  162  A    between atoms: _399  and  _400
REMARK  163  A    between atoms: _402  and  _404
REMARK  164  A    between atoms: _404  and  _405
REMARK  165  A    between atoms: _404  and  _407
REMARK  166  A    between atoms: _407  and  _408
REMARK  167  A    between atoms: _411  and  _413
REMARK  168  A    between atoms: _413  and  _414
REMARK  169  A    between atoms: _413  and  _416
REMARK  170  A    between atoms: _416  and  _417
REMARK  171  A    between atoms: _419  and  _421
REMARK  172  A    between atoms: _421  and  _422
REMARK  173  A    between atoms: _424  and  _426
REMARK  174  A    between atoms: _426  and  _427
REMARK  175  A    between atoms: _429  and  _431
REMARK  176  A    between atoms: _431  and  _432
REMARK  177  A    between atoms: _431  and  _434
REMARK  178  A    between atoms: _437  and  _439
REMARK  179  A    between atoms: _439  and  _440
REMARK  180  A    between atoms: _439  and  _442
REMARK  181  A    between atoms: _445  and  _447
REMARK  182  A    between atoms: _447  and  _448
REMARK  183  A    between atoms: _447  and  _450
REMARK  184  A    between atoms: _450  and  _451
REMARK  185  A    between atoms: _453  and  _455
REMARK  186  A    between atoms: _455  and  _456
REMARK  187  A    between atoms: _455  and  _458
REMARK  188  A    between atoms: _458  and  _459
REMARK  189  A    between atoms: _469  and  _471
REMARK  190  A    between atoms: _471  and  _472
REMARK  191  A    between atoms: _474  and  _476
REMARK  192  A    between atoms: _476  and  _477
REMARK  193  A    between atoms: _476  and  _479
REMARK  194  A    between atoms: _479  and  _480
REMARK  195  A    between atoms: _483  and  _485
REMARK  196  A    between atoms: _485  and  _486
REMARK  197  A    between atoms: _488  and  _490
REMARK  198  A    between atoms: _490  and  _491
REMARK  199  A    between atoms: _490  and  _493
REMARK  200  A    between atoms: _493  and  _494
REMARK  201  A    between atoms: _495  and  _497
REMARK  202  A    between atoms: _497  and  _498
REMARK  203  A    between atoms: _501  and  _503
REMARK  204  A    between atoms: _503  and  _504
REMARK  205  A    between atoms: _503  and  _506
REMARK  206  A    between atoms: _506  and  _507
REMARK  207  A    between atoms: _507  and  _508
REMARK  208  A    between atoms: _513  and  _515
REMARK  209  A    between atoms: _515  and  _516
REMARK  210  A    between atoms: _515  and  _518
REMARK  211  A    between atoms: _518  and  _519
REMARK  212  A    between atoms: _519  and  _520
REMARK  213  A    between atoms: _520  and  _521
REMARK  214  A    between atoms: _521  and  _522
REMARK  215  A    between atoms: _527  and  _528
REMARK  216  A    between atoms: _533  and  _535
REMARK  217  A    between atoms: _535  and  _536
REMARK  218  A    between atoms: _538  and  _540
REMARK  219  A    between atoms: _540  and  _541
REMARK  220  A    between atoms: _540  and  _543
REMARK  221  A    between atoms: _546  and  _548
REMARK  222  A    between atoms: _548  and  _549
REMARK  223  A    between atoms: _548  and  _551
REMARK  224  A    between atoms: _551  and  _552
REMARK  225  A    between atoms: _557  and  _558
REMARK                            x       y       z     vdW  Elec       q    Type
REMARK                         _______ _______ _______ _____ _____    ______ ____
ROOT
ATOM      1  CG  TYR A   1      11.820  70.419  14.509  0.00  0.00    -0.020 A 
ATOM      2  CD2 TYR A   1      11.714  71.371  15.539  0.00  0.00    -0.001 A 
ATOM      3  CE2 TYR A   1      12.814  72.119  15.930  0.00  0.00    +0.036 A 
ATOM      4  CZ  TYR A   1      14.033  71.919  15.319  0.00  0.00    +0.134 A 
ATOM      5  CE1 TYR A   1      14.177  70.987  14.305  0.00  0.00    +0.036 A 
ATOM      6  CD1 TYR A   1      13.069  70.246  13.899  0.00  0.00    -0.001 A 
ENDROOT
BRANCH   4   7
ATOM      7  OH  TYR A   1      15.140  72.632  15.716  0.00  0.00    -0.506 OA
ATOM      8  HH  TYR A   1      15.920  72.359  15.171  0.00  0.00    +0.292 HD
ENDBRANCH   4   7
BRANCH   1   9
ATOM      9  CB  TYR A   1      10.614  69.619  14.069  0.00  0.00    +0.051 C 
BRANCH   9  10
ATOM     10  CA  TYR A   1       9.979  70.126  12.781  0.00  0.00    +0.137 C 
BRANCH  10  11
ATOM     11  N   TYR A   1       9.407  71.458  13.009  0.00  0.00    -0.239 NA
ATOM     12  H   TYR A   1       9.402  71.864  13.966  0.00  0.00    +0.142 HD
ENDBRANCH  10  11
BRANCH  10  13
ATOM     13  C   TYR A   1       8.963  69.114  12.262  0.00  0.00    +0.224 C 
ATOM     14  O   TYR A   1       9.339  68.052  11.749  0.00  0.00    -0.287 OA
ENDBRANCH  10  13
ENDBRANCH   9  10
ENDBRANCH   1   9
TORSDOF 5
REMARK  Name = ../refined-set-2016/4jz1/4jz1_pocket.pdb
REMARK  225 active torsions:
REMARK  status: ('A' for Active; 'I' for Inactive)
REMARK    1  A    between atoms: _1  and  _5
REMARK    2  A    between atoms: _5  and  _6
REMARK    3  A    between atoms: _5  and  _8
REMARK    4  A    between atoms: _11  and  _13
REMARK    5  A    between atoms: _13  and  _14
REMARK    6  A    between atoms: _13  and  _16
REMARK    7  A    between atoms: _19  and  _21
REMARK    8  A    between atoms: _21  and  _22
REMARK    9  A    between atoms: _21  and  _24
REMARK   10  A    between atoms: _24  and  _25
REMARK   11  A    between atoms: _25  and  _26
REMARK   12  A    between atoms: _31  and  _33
REMARK   13  A    between atoms: _33  and  _34
REMARK   14  A    between atoms: _33  and  _36
REMARK   15  A    between atoms: _36  and  _37
REMARK   16  A    between atoms: _42  and  _44
REMARK   17  A    between atoms: _44  and  _45
REMARK   18  A    between atoms: _44  and  _47
REMARK   19  A    between atoms: _47  and  _48
REMARK   20  A    between atoms: _51  and  _53
REMARK   21  A    between atoms: _53  and  _54
REMARK   22  A    between atoms: _53  and  _56
REMARK   23  A    between atoms: _56  and  _57
REMARK   24  A    between atoms: _57  and  _92
REMARK   25  A    between atoms: _58  and  _60
REMARK   26  A    between atoms: _60  and  _61
REMARK   27  A    between atoms: _63  and  _65
REMARK   28  A    between atoms: _65  and  _66
REMARK   29  A    between atoms: _69  and  _71
REMARK   30  A    between atoms: _71  and  _72
REMARK   31  A    between atoms: _75  and  _77
REMARK   32  A    between atoms: _77  and  _78
REMARK   33  A    between atoms: _77  and  _80
REMARK   34  A    between atoms: _80  and  _81
REMARK   35  A    between atoms: _86  and  _88
REMARK   36  A    between atoms: _88  and  _89
REMARK   37  A    between atoms: _88  and  _91
REMARK   38  A    between atoms: _91  and  _92
REMARK   39  A    between atoms: _93  and  _95
REMARK   40  A    between atoms: _95  and  _96
REMARK   41  A    between atoms: _95  and  _98
REMARK   42  A    between atoms: _98  and  _99
REMARK   43  A    between atoms: _104  and  _105
REMARK   44  A    between atoms: _107  and  _109
REMARK   45  A    between atoms: _109  and  _110
REMARK   46  A    between atoms: _109  and  _112
REMARK   47  A    between atoms: _112  and  _113
REMARK   48  A    between atoms: _116  and  _118
REMARK   49  A    between atoms: _118  and  _119
REMARK   50  A    between atoms: _118  and  _121
REMARK   51  A    between atoms: _121  and  _122
REMARK   52  A    between atoms: _125  and  _127
REMARK   53  A    between atoms: _127  and  _128
REMARK   54  A    between atoms: _127  and  _130
REMARK   55  A    between atoms: _130  and  _131
REMARK   56  A    between atoms: _134  and  _136
REMARK   57  A    between atoms: _136  and  _137
REMARK   58  A    between atoms: _136  and  _139
REMARK   59  A    between atoms: _139  and  _140
REMARK   60  A    between atoms: _145  and  _146
REMARK   61  A    between atoms: _148  and  _150
REMARK   62  A    between atoms: _150  and  _151
REMARK   63  A    between atoms: _150  and  _153
REMARK   64  A    between atoms: _153  and  _154
REMARK   65  A    between atoms: _164  and  _166
REMARK   66  A    between atoms: _166  and  _167
REMARK   67  A    between atoms: _166  and  _169
REMARK   68  A    between atoms: _169  and  _170
REMARK   69  A    between atoms: _175  and  _177
REMARK   70  A    between atoms: _177  and  _178
REMARK   71  A    between atoms: _177  and  _180
REMARK   72  A    between atoms: _180  and  _181
REMARK   73  A    between atoms: _184  and  _186
REMARK   74  A    between atoms: _186  and  _187
REMARK   75  A    between atoms: _186  and  _189
REMARK   76  A    between atoms: _189  and  _190
REMARK   77  A    between atoms: _196  and  _198
REMARK   78  A    between atoms: _198  and  _199
REMARK   79  A    between atoms: _198  and  _201
REMARK   80  A    between atoms: _201  and  _202
REMARK   81  A    between atoms: _205  and  _207
REMARK   82  A    between atoms: _207  and  _208
REMARK   83  A    between atoms: _207  and  _210
REMARK   84  A    between atoms: _210  and  _211
REMARK   85  A    between atoms: _217  and  _219
REMARK   86  A    between atoms: _219  and  _220
REMARK   87  A    between atoms: _219  and  _222
REMARK   88  A    between atoms: _222  and  _223
REMARK   89  A    between atoms: _226  and  _228
REMARK   90  A    between atoms: _228  and  _229
REMARK   91  A    between atoms: _228  and  _231
REMARK   92  A    between atoms: _231  and  _232
REMARK   93  A    between atoms: _235  and  _237
REMARK   94  A    between atoms: _237  and  _238
REMARK   95  A    between atoms: _237  and  _240
REMARK   96  A    between atoms: _243  and  _245
REMARK   97  A    between atoms: _245  and  _246
REMARK   98  A    between atoms: _248  and  _250
REMARK   99  A    between atoms: _250  and  _251
REMARK  100  A    between atoms: _250  and  _253
REMARK  101  A    between atoms: _253  and  _254
REMARK  102  A    between atoms: _259  and  _261
REMARK  103  A    between atoms: _261  and  _262
REMARK  104  A    between atoms: _261  and  _264
REMARK  105  A    between atoms: _264  and  _265
REMARK  106  A    between atoms: _270  and  _271
REMARK  107  A    between atoms: _273  and  _275
REMARK  108  A    between atoms: _275  and  _276
REMARK  109  A    between atoms: _278  and  _280
REMARK  110  A    between atoms: _280  and  _281
REMARK  111  A    between atoms: _280  and  _283
REMARK  112  A    between atoms: _283  and  _284
REMARK  113  A    between atoms: _287  and  _289
REMARK  114  A    between atoms: _289  and  _290
REMARK  115  A    between atoms: _289  and  _292
REMARK  116  A    between atoms: _292  and  _293
REMARK  117  A    between atoms: _297  and  _298
REMARK  118  A    between atoms: _303  and  _305
REMARK  119  A    between atoms: _305  and  _306
REMARK  120  A    between atoms: _305  and  _308
REMARK  121  A    between atoms: _308  and  _309
REMARK  122  A    between atoms: _309  and  _310
REMARK  123  A    between atoms: _315  and  _317
REMARK  124  A    between atoms: _317  and  _318
REMARK  125  A    between atoms: _317  and  _320
REMARK  126  A    between atoms: _320  and  _321
REMARK  127  A    between atoms: _321  and  _322
REMARK  128  A    between atoms: _327  and  _329
REMARK  129  A    between atoms: _329  and  _330
REMARK  130  A    between atoms: _329  and  _332
REMARK  131  A    between atoms: _332  and  _333
REMARK  132  A    between atoms: _336  and  _338
REMARK  133  A    between atoms: _338  and  _339
REMARK  134  A    between atoms: _338  and  _341
REMARK  135  A    between atoms: _341  and  _342
REMARK  136  A    between atoms: _342  and  _343
REMARK  137  A    between atoms: _345  and  _347
REMARK  138  A    between atoms: _347  and  _348
REMARK  139  A    between atoms: _347  and  _350
REMARK  140  A    between atoms: _353  and  _355
REMARK  141  A    between atoms: _355  and  _356
REMARK  142  A    between atoms: _355  and  _358
REMARK  143  A    between atoms: _361  and  _363
REMARK  144  A    between atoms: _363  and  _364
REMARK  145  A    between atoms: _363  and  _366
REMARK  146  A    between atoms: _366  and  _367
REMARK  147  A    between atoms: _370  and  _372
REMARK  148  A    between atoms: _372  and  _373
REMARK  149  A    between atoms: _372  and  _375
REMARK  150  A    between atoms: _375  and  _376
REMARK  151  A    between atoms: _378  and  _380
REMARK  152  A    between atoms: _380  and  _381
REMARK  153  A    between atoms: _380  and  _383
REMARK  154  A    between atoms: _383  and  _384
REMARK  155  A    between atoms: _384  and  _494
REMARK  156  A    between atoms: _385  and  _387
REMARK  157  A    between atoms: _387  and  _388
REMARK  158  A    between atoms: _387  and  _390
REMARK  159  A    between atoms: _390  and  _391
REMARK  160  A    between atoms: _391  and  _392
REMARK  161  A    between atoms: _397  and  _399
REMARK  162  A    between atoms: _399  and  _400
REMARK  163  A    between atoms: _402  and  _404
REMARK  164  A    between atoms: _404  and  _405
REMARK  165  A    between atoms: _404  and  _407
REMARK  166  A    between atoms: _407  and  _408
REMARK  167  A    between atoms: _411  and  _413
REMARK  168  A    between atoms: _413  and  _414
REMARK  169  A    between atoms: _413  and  _416
REMARK  170  A    between atoms: _416  and  _417
REMARK  171  A    between atoms: _419  and  _421
REMARK  172  A    between atoms: _421  and  _422
REMARK  173  A    between atoms: _424  and  _426
REMARK  174  A    between atoms: _426  and  _427
REMARK  175  A    between atoms: _429  and  _431
REMARK  176  A    between atoms: _431  and  _432
REMARK  177  A    between atoms: _431  and  _434
REMARK  178  A    between atoms: _437  and  _439
REMARK  179  A    between atoms: _439  and  _440
REMARK  180  A    between atoms: _439  and  _442
REMARK  181  A    between atoms: _445  and  _447
REMARK  182  A    between atoms: _447  and  _448
REMARK  183  A    between atoms: _447  and  _450
REMARK  184  A    between atoms: _450  and  _451
REMARK  185  A    between atoms: _453  and  _455
REMARK  186  A    between atoms: _455  and  _456
REMARK  187  A    between atoms: _455  and  _458
REMARK  188  A    between atoms: _458  and  _459
REMARK  189  A    between atoms: _469  and  _471
REMARK  190  A    between atoms: _471  and  _472
REMARK  191  A    between atoms: _474  and  _476
REMARK  192  A    between atoms: _476  and  _477
REMARK  193  A    between atoms: _476  and  _479
REMARK  194  A    between atoms: _479  and  _480
REMARK  195  A    between atoms: _483  and  _485
REMARK  196  A    between atoms: _485  and  _486
REMARK  197  A    between atoms: _488  and  _490
REMARK  198  A    between atoms: _490  and  _491
REMARK  199  A    between atoms: _490  and  _493
REMARK  200  A    between atoms: _493  and  _494
REMARK  201  A    between atoms: _495  and  _497
REMARK  202  A    between atoms: _497  and  _498
REMARK  203  A    between atoms: _501  and  _503
REMARK  204  A    between atoms: _503  and  _504
REMARK  205  A    between atoms: _503  and  _506
REMARK  206  A    between atoms: _506  and  _507
REMARK  207  A    between atoms: _507  and  _508
REMARK  208  A    between atoms: _513  and  _515
REMARK  209  A    between atoms: _515  and  _516
REMARK  210  A    between atoms: _515  and  _518
REMARK  211  A    between atoms: _518  and  _519
REMARK  212  A    between atoms: _519  and  _520
REMARK  213  A    between atoms: _520  and  _521
REMARK  214  A    between atoms: _521  and  _522
REMARK  215  A    between atoms: _527  and  _528
REMARK  216  A    between atoms: _533  and  _535
REMARK  217  A    between atoms: _535  and  _536
REMARK  218  A    between atoms: _538  and  _540
REMARK  219  A    between atoms: _540  and  _541
REMARK  220  A    between atoms: _540  and  _543
REMARK  221  A    between atoms: _546  and  _548
REMARK  222  A    between atoms: _548  and  _549
REMARK  223  A    between atoms: _548  and  _551
REMARK  224  A    between atoms: _551  and  _552
REMARK  225  A    between atoms: _557  and  _558
REMARK                            x       y       z     vdW  Elec       q    Type
REMARK                         _______ _______ _______ _____ _____    ______ ____
ROOT
ATOM      1  CG  TRP A   1      12.717  66.938   8.121  0.00  0.00    -0.002 A 
ATOM      2  CD2 TRP A   1      13.465  66.827   9.362  0.00  0.00    +0.013 A 
ATOM      3  CE2 TRP A   1      12.545  67.215  10.446  0.00  0.00    +0.056 A 
ATOM      4  CZ2 TRP A   1      12.943  67.177  11.771  0.00  0.00    +0.017 A 
ATOM      5  CH2 TRP A   1      14.300  66.797  12.049  0.00  0.00    +0.001 A 
ATOM      6  CZ3 TRP A   1      15.198  66.455  11.018  0.00  0.00    +0.000 A 
ATOM      7  NE1 TRP A   1      11.338  67.527   9.870  0.00  0.00    -0.352 N 
ATOM      8  HE1 TRP A   1      10.483  67.807  10.392  0.00  0.00    +0.166 HD
ATOM      9  CE3 TRP A   1      14.799  66.472   9.681  0.00  0.00    +0.001 A 
ATOM     10  CD1 TRP A   1      11.425  67.414   8.495  0.00  0.00    +0.068 A 
ENDROOT
BRANCH   1  11
ATOM     11  CB  TRP A   1      13.262  66.656   6.750  0.00  0.00    +0.053 C 
BRANCH  11  12
ATOM     12  CA  TRP A   1      13.927  67.855   6.077  0.00  0.00    +0.137 C 
BRANCH  12  13
ATOM     13  N   TRP A   1      12.910  68.872   5.809  0.00  0.00    -0.239 NA
ATOM     14  H   TRP A   1      12.153  68.682   5.122  0.00  0.00    +0.142 HD
ENDBRANCH  12  13
BRANCH  12  15
ATOM     15  C   TRP A   1      14.719  67.401   4.863  0.00  0.00    +0.224 C 
ATOM     16  O   TRP A   1      14.266  67.490   3.736  0.00  0.00    -0.287 OA
ENDBRANCH  12  15
ENDBRANCH  11  12
ENDBRANCH   1  11
TORSDOF 4
REMARK  Name = ../refined-set-2016/4jz1/4jz1_pocket.pdb
REMARK  225 active torsions:
REMARK  status: ('A' for Active; 'I' for Inactive)
REMARK    1  A    between atoms: _1  and  _5
REMARK    2  A    between atoms: _5  and  _6
REMARK    3  A    between atoms: _5  and  _8
REMARK    4  A    between atoms: _11  and  _13
REMARK    5  A    between atoms: _13  and  _14
REMARK    6  A    between atoms: _13  and  _16
REMARK    7  A    between atoms: _19  and  _21
REMARK    8  A    between atoms: _21  and  _22
REMARK    9  A    between atoms: _21  and  _24
REMARK   10  A    between atoms: _24  and  _25
REMARK   11  A    between atoms: _25  and  _26
REMARK   12  A    between atoms: _31  and  _33
REMARK   13  A    between atoms: _33  and  _34
REMARK   14  A    between atoms: _33  and  _36
REMARK   15  A    between atoms: _36  and  _37
REMARK   16  A    between atoms: _42  and  _44
REMARK   17  A    between atoms: _44  and  _45
REMARK   18  A    between atoms: _44  and  _47
REMARK   19  A    between atoms: _47  and  _48
REMARK   20  A    between atoms: _51  and  _53
REMARK   21  A    between atoms: _53  and  _54
REMARK   22  A    between atoms: _53  and  _56
REMARK   23  A    between atoms: _56  and  _57
REMARK   24  A    between atoms: _57  and  _92
REMARK   25  A    between atoms: _58  and  _60
REMARK   26  A    between atoms: _60  and  _61
REMARK   27  A    between atoms: _63  and  _65
REMARK   28  A    between atoms: _65  and  _66
REMARK   29  A    between atoms: _69  and  _71
REMARK   30  A    between atoms: _71  and  _72
REMARK   31  A    between atoms: _75  and  _77
REMARK   32  A    between atoms: _77  and  _78
REMARK   33  A    between atoms: _77  and  _80
REMARK   34  A    between atoms: _80  and  _81
REMARK   35  A    between atoms: _86  and  _88
REMARK   36  A    between atoms: _88  and  _89
REMARK   37  A    between atoms: _88  and  _91
REMARK   38  A    between atoms: _91  and  _92
REMARK   39  A    between atoms: _93  and  _95
REMARK   40  A    between atoms: _95  and  _96
REMARK   41  A    between atoms: _95  and  _98
REMARK   42  A    between atoms: _98  and  _99
REMARK   43  A    between atoms: _104  and  _105
REMARK   44  A    between atoms: _107  and  _109
REMARK   45  A    between atoms: _109  and  _110
REMARK   46  A    between atoms: _109  and  _112
REMARK   47  A    between atoms: _112  and  _113
REMARK   48  A    between atoms: _116  and  _118
REMARK   49  A    between atoms: _118  and  _119
REMARK   50  A    between atoms: _118  and  _121
REMARK   51  A    between atoms: _121  and  _122
REMARK   52  A    between atoms: _125  and  _127
REMARK   53  A    between atoms: _127  and  _128
REMARK   54  A    between atoms: _127  and  _130
REMARK   55  A    between atoms: _130  and  _131
REMARK   56  A    between atoms: _134  and  _136
REMARK   57  A    between atoms: _136  and  _137
REMARK   58  A    between atoms: _136  and  _139
REMARK   59  A    between atoms: _139  and  _140
REMARK   60  A    between atoms: _145  and  _146
REMARK   61  A    between atoms: _148  and  _150
REMARK   62  A    between atoms: _150  and  _151
REMARK   63  A    between atoms: _150  and  _153
REMARK   64  A    between atoms: _153  and  _154
REMARK   65  A    between atoms: _164  and  _166
REMARK   66  A    between atoms: _166  and  _167
REMARK   67  A    between atoms: _166  and  _169
REMARK   68  A    between atoms: _169  and  _170
REMARK   69  A    between atoms: _175  and  _177
REMARK   70  A    between atoms: _177  and  _178
REMARK   71  A    between atoms: _177  and  _180
REMARK   72  A    between atoms: _180  and  _181
REMARK   73  A    between atoms: _184  and  _186
REMARK   74  A    between atoms: _186  and  _187
REMARK   75  A    between atoms: _186  and  _189
REMARK   76  A    between atoms: _189  and  _190
REMARK   77  A    between atoms: _196  and  _198
REMARK   78  A    between atoms: _198  and  _199
REMARK   79  A    between atoms: _198  and  _201
REMARK   80  A    between atoms: _201  and  _202
REMARK   81  A    between atoms: _205  and  _207
REMARK   82  A    between atoms: _207  and  _208
REMARK   83  A    between atoms: _207  and  _210
REMARK   84  A    between atoms: _210  and  _211
REMARK   85  A    between atoms: _217  and  _219
REMARK   86  A    between atoms: _219  and  _220
REMARK   87  A    between atoms: _219  and  _222
REMARK   88  A    between atoms: _222  and  _223
REMARK   89  A    between atoms: _226  and  _228
REMARK   90  A    between atoms: _228  and  _229
REMARK   91  A    between atoms: _228  and  _231
REMARK   92  A    between atoms: _231  and  _232
REMARK   93  A    between atoms: _235  and  _237
REMARK   94  A    between atoms: _237  and  _238
REMARK   95  A    between atoms: _237  and  _240
REMARK   96  A    between atoms: _243  and  _245
REMARK   97  A    between atoms: _245  and  _246
REMARK   98  A    between atoms: _248  and  _250
REMARK   99  A    between atoms: _250  and  _251
REMARK  100  A    between atoms: _250  and  _253
REMARK  101  A    between atoms: _253  and  _254
REMARK  102  A    between atoms: _259  and  _261
REMARK  103  A    between atoms: _261  and  _262
REMARK  104  A    between atoms: _261  and  _264
REMARK  105  A    between atoms: _264  and  _265
REMARK  106  A    between atoms: _270  and  _271
REMARK  107  A    between atoms: _273  and  _275
REMARK  108  A    between atoms: _275  and  _276
REMARK  109  A    between atoms: _278  and  _280
REMARK  110  A    between atoms: _280  and  _281
REMARK  111  A    between atoms: _280  and  _283
REMARK  112  A    between atoms: _283  and  _284
REMARK  113  A    between atoms: _287  and  _289
REMARK  114  A    between atoms: _289  and  _290
REMARK  115  A    between atoms: _289  and  _292
REMARK  116  A    between atoms: _292  and  _293
REMARK  117  A    between atoms: _297  and  _298
REMARK  118  A    between atoms: _303  and  _305
REMARK  119  A    between atoms: _305  and  _306
REMARK  120  A    between atoms: _305  and  _308
REMARK  121  A    between atoms: _308  and  _309
REMARK  122  A    between atoms: _309  and  _310
REMARK  123  A    between atoms: _315  and  _317
REMARK  124  A    between atoms: _317  and  _318
REMARK  125  A    between atoms: _317  and  _320
REMARK  126  A    between atoms: _320  and  _321
REMARK  127  A    between atoms: _321  and  _322
REMARK  128  A    between atoms: _327  and  _329
REMARK  129  A    between atoms: _329  and  _330
REMARK  130  A    between atoms: _329  and  _332
REMARK  131  A    between atoms: _332  and  _333
REMARK  132  A    between atoms: _336  and  _338
REMARK  133  A    between atoms: _338  and  _339
REMARK  134  A    between atoms: _338  and  _341
REMARK  135  A    between atoms: _341  and  _342
REMARK  136  A    between atoms: _342  and  _343
REMARK  137  A    between atoms: _345  and  _347
REMARK  138  A    between atoms: _347  and  _348
REMARK  139  A    between atoms: _347  and  _350
REMARK  140  A    between atoms: _353  and  _355
REMARK  141  A    between atoms: _355  and  _356
REMARK  142  A    between atoms: _355  and  _358
REMARK  143  A    between atoms: _361  and  _363
REMARK  144  A    between atoms: _363  and  _364
REMARK  145  A    between atoms: _363  and  _366
REMARK  146  A    between atoms: _366  and  _367
REMARK  147  A    between atoms: _370  and  _372
REMARK  148  A    between atoms: _372  and  _373
REMARK  149  A    between atoms: _372  and  _375
REMARK  150  A    between atoms: _375  and  _376
REMARK  151  A    between atoms: _378  and  _380
REMARK  152  A    between atoms: _380  and  _381
REMARK  153  A    between atoms: _380  and  _383
REMARK  154  A    between atoms: _383  and  _384
REMARK  155  A    between atoms: _384  and  _494
REMARK  156  A    between atoms: _385  and  _387
REMARK  157  A    between atoms: _387  and  _388
REMARK  158  A    between atoms: _387  and  _390
REMARK  159  A    between atoms: _390  and  _391
REMARK  160  A    between atoms: _391  and  _392
REMARK  161  A    between atoms: _397  and  _399
REMARK  162  A    between atoms: _399  and  _400
REMARK  163  A    between atoms: _402  and  _404
REMARK  164  A    between atoms: _404  and  _405
REMARK  165  A    between atoms: _404  and  _407
REMARK  166  A    between atoms: _407  and  _408
REMARK  167  A    between atoms: _411  and  _413
REMARK  168  A    between atoms: _413  and  _414
REMARK  169  A    between atoms: _413  and  _416
REMARK  170  A    between atoms: _416  and  _417
REMARK  171  A    between atoms: _419  and  _421
REMARK  172  A    between atoms: _421  and  _422
REMARK  173  A    between atoms: _424  and  _426
REMARK  174  A    between atoms: _426  and  _427
REMARK  175  A    between atoms: _429  and  _431
REMARK  176  A    between atoms: _431  and  _432
REMARK  177  A    between atoms: _431  and  _434
REMARK  178  A    between atoms: _437  and  _439
REMARK  179  A    between atoms: _439  and  _440
REMARK  180  A    between atoms: _439  and  _442
REMARK  181  A    between atoms: _445  and  _447
REMARK  182  A    between atoms: _447  and  _448
REMARK  183  A    between atoms: _447  and  _450
REMARK  184  A    between atoms: _450  and  _451
REMARK  185  A    between atoms: _453  and  _455
REMARK  186  A    between atoms: _455  and  _456
REMARK  187  A    between atoms: _455  and  _458
REMARK  188  A    between atoms: _458  and  _459
REMARK  189  A    between atoms: _469  and  _471
REMARK  190  A    between atoms: _471  and  _472
REMARK  191  A    between atoms: _474  and  _476
REMARK  192  A    between atoms: _476  and  _477
REMARK  193  A    between atoms: _476  and  _479
REMARK  194  A    between atoms: _479  and  _480
REMARK  195  A    between atoms: _483  and  _485
REMARK  196  A    between atoms: _485  and  _486
REMARK  197  A    between atoms: _488  and  _490
REMARK  198  A    between atoms: _490  and  _491
REMARK  199  A    between atoms: _490  and  _493
REMARK  200  A    between atoms: _493  and  _494
REMARK  201  A    between atoms: _495  and  _497
REMARK  202  A    between atoms: _497  and  _498
REMARK  203  A    between atoms: _501  and  _503
REMARK  204  A    between atoms: _503  and  _504
REMARK  205  A    between atoms: _503  and  _506
REMARK  206  A    between atoms: _506  and  _507
REMARK  207  A    between atoms: _507  and  _508
REMARK  208  A    between atoms: _513  and  _515
REMARK  209  A    between atoms: _515  and  _516
REMARK  210  A    between atoms: _515  and  _518
REMARK  211  A    between atoms: _518  and  _519
REMARK  212  A    between atoms: _519  and  _520
REMARK  213  A    between atoms: _520  and  _521
REMARK  214  A    between atoms: _521  and  _522
REMARK  215  A    between atoms: _527  and  _528
REMARK  216  A    between atoms: _533  and  _535
REMARK  217  A    between atoms: _535  and  _536
REMARK  218  A    between atoms: _538  and  _540
REMARK  219  A    between atoms: _540  and  _541
REMARK  220  A    between atoms: _540  and  _543
REMARK  221  A    between atoms: _546  and  _548
REMARK  222  A    between atoms: _548  and  _549
REMARK  223  A    between atoms: _548  and  _551
REMARK  224  A    between atoms: _551  and  _552
REMARK  225  A    between atoms: _557  and  _558
REMARK                            x       y       z     vdW  Elec       q    Type
REMARK                         _______ _______ _______ _____ _____    ______ ____
ROOT
ATOM      1  C   PHE A   3       5.921  62.705  28.430  0.00  0.00    +0.241 C 
ATOM      2  O   PHE A   3       6.977  62.787  29.070  0.00  0.00    -0.273 OA
ATOM      3  N   THR A   4       5.369  61.534  28.123  0.00  0.00    -0.295 N 
ATOM      4  H   THR A   4       4.482  61.518  27.580  0.00  0.00    +0.150 HD
ENDROOT
BRANCH   3   5
ATOM      5  CA  THR A   4       5.980  60.267  28.532  0.00  0.00    +0.176 C 
BRANCH   5   6
ATOM      6  C   THR A   4       6.907  59.659  27.454  0.00  0.00    +0.243 C 
ATOM      7  O   THR A   4       7.733  58.783  27.753  0.00  0.00    -0.273 OA
ATOM      8  N   PHE A   5       6.787  60.135  26.218  0.00  0.00    -0.297 N 
ATOM      9  H   PHE A   5       6.212  60.989  26.071  0.00  0.00    +0.150 HD
BRANCH   8  10
ATOM     10  CA  PHE A   5       7.428  59.512  25.048  0.00  0.00    +0.153 C 
BRANCH  10  11
ATOM     11  C   PHE A   5       6.886  58.104  24.805  0.00  0.00    +0.241 C 
ATOM     12  N   ASP A   6       5.703  57.767  25.329  0.00  0.00    -0.298 N 
ATOM     13  H   ASP A   6       5.233  58.374  26.031  0.00  0.00    +0.150 HD
ATOM     14  O   PHE A   5       7.529  57.322  24.134  0.00  0.00    -0.273 OA
BRANCH  12  15
ATOM     15  CA  ASP A   6       5.088  56.508  24.879  0.00  0.00    +0.148 C 
BRANCH  15  16
ATOM     16  C   ASP A   6       4.841  56.606  23.348  0.00  0.00    +0.227 C 
ATOM     17  O   ASP A   6       4.597  57.705  22.824  0.00  0.00    -0.286 OA
ENDBRANCH  15  16
BRANCH  15  18
ATOM     18  CB  ASP A   6       3.794  56.208  25.659  0.00  0.00    +0.142 C 
BRANCH  18  19
ATOM     19  CG  ASP A   6       3.413  54.751  25.622  0.00  0.00    +0.367 C 
ATOM     20  OD2 ASP A   6       2.226  54.485  26.008  0.00  0.00    -0.246 OA
ATOM     21  OD1 ASP A   6       4.287  53.881  25.252  0.00  0.00    -0.246 OA
ENDBRANCH  18  19
ENDBRANCH  15  18
ENDBRANCH  12  15
ENDBRANCH  10  11
BRANCH  10  22
ATOM     22  CB  PHE A   5       8.976  59.500  25.128  0.00  0.00    +0.055 C 
BRANCH  22  23
ATOM     23  CG  PHE A   5       9.647  60.800  24.699  0.00  0.00    -0.020 A 
ATOM     24  CD2 PHE A   5       8.979  62.068  24.760  0.00  0.00    -0.004 A 
ATOM     25  CE2 PHE A   5       9.636  63.263  24.387  0.00  0.00    -0.000 A 
ATOM     26  CZ  PHE A   5      10.924  63.198  23.857  0.00  0.00    -0.000 A 
ATOM     27  CE1 PHE A   5      11.592  61.990  23.804  0.00  0.00    -0.000 A 
ATOM     28  CD1 PHE A   5      10.967  60.782  24.236  0.00  0.00    -0.004 A 
ENDBRANCH  22  23
ENDBRANCH  10  22
ENDBRANCH   8  10
ENDBRANCH   5   6
BRANCH   5  29
ATOM     29  CB  THR A   4       4.910  59.222  28.898  0.00  0.00    +0.137 C 
ATOM     30  CG2 THR A   4       4.079  59.665  30.059  0.00  0.00    +0.034 C 
BRANCH  29  31
ATOM     31  OG1 THR A   4       4.095  58.921  27.741  0.00  0.00    -0.382 OA
ATOM     32  HG1 THR A   4       3.650  59.748  27.428  0.00  0.00    +0.210 HD
ENDBRANCH  29  31
ENDBRANCH   5  29
ENDBRANCH   3   5
BRANCH   1  33
ATOM     33  CA  PHE A   3       5.188  63.952  27.959  0.00  0.00    +0.153 C 
BRANCH  33  35
ATOM     34  C   ASP A   2       5.566  64.218  25.552  0.00  0.00    +0.241 C 
ATOM     35  N   PHE A   3       4.809  63.787  26.557  0.00  0.00    -0.297 N 
ATOM     36  H   PHE A   3       3.910  63.313  26.336  0.00  0.00    +0.150 HD
ATOM     37  O   ASP A   2       6.692  64.677  25.735  0.00  0.00    -0.273 OA
BRANCH  34  38
ATOM     38  CA  ASP A   2       4.981  64.121  24.119  0.00  0.00    +0.160 C 
BRANCH  38  41
ATOM     39  C   ASN A   1       3.959  61.874  24.285  0.00  0.00    +0.239 C 
ATOM     40  O   ASN A   1       4.959  61.326  24.723  0.00  0.00    -0.274 OA
ATOM     41  N   ASP A   2       3.885  63.162  23.969  0.00  0.00    -0.297 N 
ATOM     42  H   ASP A   2       2.984  63.514  23.588  0.00  0.00    +0.150 HD
BRANCH  39  43
ATOM     43  CA  ASN A   1       2.702  61.064  24.037  0.00  0.00    +0.154 C 
BRANCH  43  44
ATOM     44  N   ASN A   1       2.968  60.282  22.845  0.00  0.00    -0.238 NA
ATOM     45  H   ASN A   1       3.789  59.644  22.866  0.00  0.00    +0.142 HD
ENDBRANCH  43  44
BRANCH  43  46
ATOM     46  CB  ASN A   1       2.374  60.125  25.236  0.00  0.00    +0.111 C 
BRANCH  46  47
ATOM     47  CG  ASN A   1       2.075  60.886  26.559  0.00  0.00    +0.221 C 
ATOM     48  ND2 ASN A   1       1.322  60.258  27.501  0.00  0.00    -0.329 N 
ATOM     49 HD21 ASN A   1       1.142  60.720  28.415  0.00  0.00    +0.145 HD
ATOM     50 HD22 ASN A   1       0.926  59.316  27.307  0.00  0.00    +0.145 HD
ATOM     51  OD1 ASN A   1       2.547  61.974  26.751  0.00  0.00    -0.275 OA
ENDBRANCH  46  47
ENDBRANCH  43  46
ENDBRANCH  39  43
ENDBRANCH  38  41
BRANCH  38  52
ATOM     52  CB  ASP A   2       4.531  65.506  23.593  0.00  0.00    +0.143 C 
BRANCH  52  53
ATOM     53  CG  ASP A   2       5.738  66.494  23.364  0.00  0.00    +0.367 C 
ATOM     54  OD2 ASP A   2       6.945  66.105  23.586  0.00  0.00    -0.246 OA
ATOM     55  OD1 ASP A   2       5.494  67.677  22.945  0.00  0.00    -0.246 OA
ENDBRANCH  52  53
ENDBRANCH  38  52
ENDBRANCH  34  38
ENDBRANCH  33  35
BRANCH  33  56
ATOM     56  CB  PHE A   3       3.935  64.180  28.787  0.00  0.00    +0.055 C 
BRANCH  56  57
ATOM     57  CG  PHE A   3       4.192  64.546  30.228  0.00  0.00    -0.020 A 
ATOM     58  CD2 PHE A   3       4.119  63.574  31.234  0.00  0.00    -0.004 A 
ATOM     59  CE2 PHE A   3       4.388  63.921  32.568  0.00  0.00    -0.000 A 
ATOM     60  CZ  PHE A   3       4.693  65.229  32.905  0.00  0.00    -0.000 A 
ATOM     61  CE1 PHE A   3       4.753  66.220  31.930  0.00  0.00    -0.000 A 
ATOM     62  CD1 PHE A   3       4.547  65.875  30.585  0.00  0.00    -0.004 A 
ENDBRANCH  56  57
ENDBRANCH  33  56
ENDBRANCH   1  33
TORSDOF 24
REMARK  Name = ../refined-set-2016/4jz1/4jz1_pocket.pdb
REMARK  225 active torsions:
REMARK  status: ('A' for Active; 'I' for Inactive)
REMARK    1  A    between atoms: _1  and  _5
REMARK    2  A    between atoms: _5  and  _6
REMARK    3  A    between atoms: _5  and  _8
REMARK    4  A    between atoms: _11  and  _13
REMARK    5  A    between atoms: _13  and  _14
REMARK    6  A    between atoms: _13  and  _16
REMARK    7  A    between atoms: _19  and  _21
REMARK    8  A    between atoms: _21  and  _22
REMARK    9  A    between atoms: _21  and  _24
REMARK   10  A    between atoms: _24  and  _25
REMARK   11  A    between atoms: _25  and  _26
REMARK   12  A    between atoms: _31  and  _33
REMARK   13  A    between atoms: _33  and  _34
REMARK   14  A    between atoms: _33  and  _36
REMARK   15  A    between atoms: _36  and  _37
REMARK   16  A    between atoms: _42  and  _44
REMARK   17  A    between atoms: _44  and  _45
REMARK   18  A    between atoms: _44  and  _47
REMARK   19  A    between atoms: _47  and  _48
REMARK   20  A    between atoms: _51  and  _53
REMARK   21  A    between atoms: _53  and  _54
REMARK   22  A    between atoms: _53  and  _56
REMARK   23  A    between atoms: _56  and  _57
REMARK   24  A    between atoms: _57  and  _92
REMARK   25  A    between atoms: _58  and  _60
REMARK   26  A    between atoms: _60  and  _61
REMARK   27  A    between atoms: _63  and  _65
REMARK   28  A    between atoms: _65  and  _66
REMARK   29  A    between atoms: _69  and  _71
REMARK   30  A    between atoms: _71  and  _72
REMARK   31  A    between atoms: _75  and  _77
REMARK   32  A    between atoms: _77  and  _78
REMARK   33  A    between atoms: _77  and  _80
REMARK   34  A    between atoms: _80  and  _81
REMARK   35  A    between atoms: _86  and  _88
REMARK   36  A    between atoms: _88  and  _89
REMARK   37  A    between atoms: _88  and  _91
REMARK   38  A    between atoms: _91  and  _92
REMARK   39  A    between atoms: _93  and  _95
REMARK   40  A    between atoms: _95  and  _96
REMARK   41  A    between atoms: _95  and  _98
REMARK   42  A    between atoms: _98  and  _99
REMARK   43  A    between atoms: _104  and  _105
REMARK   44  A    between atoms: _107  and  _109
REMARK   45  A    between atoms: _109  and  _110
REMARK   46  A    between atoms: _109  and  _112
REMARK   47  A    between atoms: _112  and  _113
REMARK   48  A    between atoms: _116  and  _118
REMARK   49  A    between atoms: _118  and  _119
REMARK   50  A    between atoms: _118  and  _121
REMARK   51  A    between atoms: _121  and  _122
REMARK   52  A    between atoms: _125  and  _127
REMARK   53  A    between atoms: _127  and  _128
REMARK   54  A    between atoms: _127  and  _130
REMARK   55  A    between atoms: _130  and  _131
REMARK   56  A    between atoms: _134  and  _136
REMARK   57  A    between atoms: _136  and  _137
REMARK   58  A    between atoms: _136  and  _139
REMARK   59  A    between atoms: _139  and  _140
REMARK   60  A    between atoms: _145  and  _146
REMARK   61  A    between atoms: _148  and  _150
REMARK   62  A    between atoms: _150  and  _151
REMARK   63  A    between atoms: _150  and  _153
REMARK   64  A    between atoms: _153  and  _154
REMARK   65  A    between atoms: _164  and  _166
REMARK   66  A    between atoms: _166  and  _167
REMARK   67  A    between atoms: _166  and  _169
REMARK   68  A    between atoms: _169  and  _170
REMARK   69  A    between atoms: _175  and  _177
REMARK   70  A    between atoms: _177  and  _178
REMARK   71  A    between atoms: _177  and  _180
REMARK   72  A    between atoms: _180  and  _181
REMARK   73  A    between atoms: _184  and  _186
REMARK   74  A    between atoms: _186  and  _187
REMARK   75  A    between atoms: _186  and  _189
REMARK   76  A    between atoms: _189  and  _190
REMARK   77  A    between atoms: _196  and  _198
REMARK   78  A    between atoms: _198  and  _199
REMARK   79  A    between atoms: _198  and  _201
REMARK   80  A    between atoms: _201  and  _202
REMARK   81  A    between atoms: _205  and  _207
REMARK   82  A    between atoms: _207  and  _208
REMARK   83  A    between atoms: _207  and  _210
REMARK   84  A    between atoms: _210  and  _211
REMARK   85  A    between atoms: _217  and  _219
REMARK   86  A    between atoms: _219  and  _220
REMARK   87  A    between atoms: _219  and  _222
REMARK   88  A    between atoms: _222  and  _223
REMARK   89  A    between atoms: _226  and  _228
REMARK   90  A    between atoms: _228  and  _229
REMARK   91  A    between atoms: _228  and  _231
REMARK   92  A    between atoms: _231  and  _232
REMARK   93  A    between atoms: _235  and  _237
REMARK   94  A    between atoms: _237  and  _238
REMARK   95  A    between atoms: _237  and  _240
REMARK   96  A    between atoms: _243  and  _245
REMARK   97  A    between atoms: _245  and  _246
REMARK   98  A    between atoms: _248  and  _250
REMARK   99  A    between atoms: _250  and  _251
REMARK  100  A    between atoms: _250  and  _253
REMARK  101  A    between atoms: _253  and  _254
REMARK  102  A    between atoms: _259  and  _261
REMARK  103  A    between atoms: _261  and  _262
REMARK  104  A    between atoms: _261  and  _264
REMARK  105  A    between atoms: _264  and  _265
REMARK  106  A    between atoms: _270  and  _271
REMARK  107  A    between atoms: _273  and  _275
REMARK  108  A    between atoms: _275  and  _276
REMARK  109  A    between atoms: _278  and  _280
REMARK  110  A    between atoms: _280  and  _281
REMARK  111  A    between atoms: _280  and  _283
REMARK  112  A    between atoms: _283  and  _284
REMARK  113  A    between atoms: _287  and  _289
REMARK  114  A    between atoms: _289  and  _290
REMARK  115  A    between atoms: _289  and  _292
REMARK  116  A    between atoms: _292  and  _293
REMARK  117  A    between atoms: _297  and  _298
REMARK  118  A    between atoms: _303  and  _305
REMARK  119  A    between atoms: _305  and  _306
REMARK  120  A    between atoms: _305  and  _308
REMARK  121  A    between atoms: _308  and  _309
REMARK  122  A    between atoms: _309  and  _310
REMARK  123  A    between atoms: _315  and  _317
REMARK  124  A    between atoms: _317  and  _318
REMARK  125  A    between atoms: _317  and  _320
REMARK  126  A    between atoms: _320  and  _321
REMARK  127  A    between atoms: _321  and  _322
REMARK  128  A    between atoms: _327  and  _329
REMARK  129  A    between atoms: _329  and  _330
REMARK  130  A    between atoms: _329  and  _332
REMARK  131  A    between atoms: _332  and  _333
REMARK  132  A    between atoms: _336  and  _338
REMARK  133  A    between atoms: _338  and  _339
REMARK  134  A    between atoms: _338  and  _341
REMARK  135  A    between atoms: _341  and  _342
REMARK  136  A    between atoms: _342  and  _343
REMARK  137  A    between atoms: _345  and  _347
REMARK  138  A    between atoms: _347  and  _348
REMARK  139  A    between atoms: _347  and  _350
REMARK  140  A    between atoms: _353  and  _355
REMARK  141  A    between atoms: _355  and  _356
REMARK  142  A    between atoms: _355  and  _358
REMARK  143  A    between atoms: _361  and  _363
REMARK  144  A    between atoms: _363  and  _364
REMARK  145  A    between atoms: _363  and  _366
REMARK  146  A    between atoms: _366  and  _367
REMARK  147  A    between atoms: _370  and  _372
REMARK  148  A    between atoms: _372  and  _373
REMARK  149  A    between atoms: _372  and  _375
REMARK  150  A    between atoms: _375  and  _376
REMARK  151  A    between atoms: _378  and  _380
REMARK  152  A    between atoms: _380  and  _381
REMARK  153  A    between atoms: _380  and  _383
REMARK  154  A    between atoms: _383  and  _384
REMARK  155  A    between atoms: _384  and  _494
REMARK  156  A    between atoms: _385  and  _387
REMARK  157  A    between atoms: _387  and  _388
REMARK  158  A    between atoms: _387  and  _390
REMARK  159  A    between atoms: _390  and  _391
REMARK  160  A    between atoms: _391  and  _392
REMARK  161  A    between atoms: _397  and  _399
REMARK  162  A    between atoms: _399  and  _400
REMARK  163  A    between atoms: _402  and  _404
REMARK  164  A    between atoms: _404  and  _405
REMARK  165  A    between atoms: _404  and  _407
REMARK  166  A    between atoms: _407  and  _408
REMARK  167  A    between atoms: _411  and  _413
REMARK  168  A    between atoms: _413  and  _414
REMARK  169  A    between atoms: _413  and  _416
REMARK  170  A    between atoms: _416  and  _417
REMARK  171  A    between atoms: _419  and  _421
REMARK  172  A    between atoms: _421  and  _422
REMARK  173  A    between atoms: _424  and  _426
REMARK  174  A    between atoms: _426  and  _427
REMARK  175  A    between atoms: _429  and  _431
REMARK  176  A    between atoms: _431  and  _432
REMARK  177  A    between atoms: _431  and  _434
REMARK  178  A    between atoms: _437  and  _439
REMARK  179  A    between atoms: _439  and  _440
REMARK  180  A    between atoms: _439  and  _442
REMARK  181  A    between atoms: _445  and  _447
REMARK  182  A    between atoms: _447  and  _448
REMARK  183  A    between atoms: _447  and  _450
REMARK  184  A    between atoms: _450  and  _451
REMARK  185  A    between atoms: _453  and  _455
REMARK  186  A    between atoms: _455  and  _456
REMARK  187  A    between atoms: _455  and  _458
REMARK  188  A    between atoms: _458  and  _459
REMARK  189  A    between atoms: _469  and  _471
REMARK  190  A    between atoms: _471  and  _472
REMARK  191  A    between atoms: _474  and  _476
REMARK  192  A    between atoms: _476  and  _477
REMARK  193  A    between atoms: _476  and  _479
REMARK  194  A    between atoms: _479  and  _480
REMARK  195  A    between atoms: _483  and  _485
REMARK  196  A    between atoms: _485  and  _486
REMARK  197  A    between atoms: _488  and  _490
REMARK  198  A    between atoms: _490  and  _491
REMARK  199  A    between atoms: _490  and  _493
REMARK  200  A    between atoms: _493  and  _494
REMARK  201  A    between atoms: _495  and  _497
REMARK  202  A    between atoms: _497  and  _498
REMARK  203  A    between atoms: _501  and  _503
REMARK  204  A    between atoms: _503  and  _504
REMARK  205  A    between atoms: _503  and  _506
REMARK  206  A    between atoms: _506  and  _507
REMARK  207  A    between atoms: _507  and  _508
REMARK  208  A    between atoms: _513  and  _515
REMARK  209  A    between atoms: _515  and  _516
REMARK  210  A    between atoms: _515  and  _518
REMARK  211  A    between atoms: _518  and  _519
REMARK  212  A    between atoms: _519  and  _520
REMARK  213  A    between atoms: _520  and  _521
REMARK  214  A    between atoms: _521  and  _522
REMARK  215  A    between atoms: _527  and  _528
REMARK  216  A    between atoms: _533  and  _535
REMARK  217  A    between atoms: _535  and  _536
REMARK  218  A    between atoms: _538  and  _540
REMARK  219  A    between atoms: _540  and  _541
REMARK  220  A    between atoms: _540  and  _543
REMARK  221  A    between atoms: _546  and  _548
REMARK  222  A    between atoms: _548  and  _549
REMARK  223  A    between atoms: _548  and  _551
REMARK  224  A    between atoms: _551  and  _552
REMARK  225  A    between atoms: _557  and  _558
REMARK                            x       y       z     vdW  Elec       q    Type
REMARK                         _______ _______ _______ _____ _____    ______ ____
ROOT
ATOM      1  CA  ASP A   1       7.841  57.258  20.152  0.00  0.00    +0.144 C 
ENDROOT
BRANCH   1   2
ATOM      2  N   ASP A   1       6.897  56.352  20.831  0.00  0.00    -0.239 NA
ATOM      3  H   ASP A   1       7.216  55.765  21.628  0.00  0.00    +0.142 HD
ENDBRANCH   1   2
BRANCH   1   4
ATOM      4  C   ASP A   1       8.380  56.655  18.864  0.00  0.00    +0.225 C 
ATOM      5  O   ASP A   1       9.494  56.106  18.804  0.00  0.00    -0.287 OA
ENDBRANCH   1   4
BRANCH   1   6
ATOM      6  CB  ASP A   1       9.002  57.606  21.099  0.00  0.00    +0.139 C 
BRANCH   6   7
ATOM      7  CG  ASP A   1       9.818  58.714  20.595  0.00  0.00    +0.367 C 
ATOM      8  OD2 ASP A   1      10.900  58.974  21.195  0.00  0.00    -0.246 OA
ATOM      9  OD1 ASP A   1       9.376  59.351  19.613  0.00  0.00    -0.246 OA
ENDBRANCH   6   7
ENDBRANCH   1   6
TORSDOF 4
REMARK  Name = ../refined-set-2016/4jz1/4jz1_pocket.pdb
REMARK  225 active torsions:
REMARK  status: ('A' for Active; 'I' for Inactive)
REMARK    1  A    between atoms: _1  and  _5
REMARK    2  A    between atoms: _5  and  _6
REMARK    3  A    between atoms: _5  and  _8
REMARK    4  A    between atoms: _11  and  _13
REMARK    5  A    between atoms: _13  and  _14
REMARK    6  A    between atoms: _13  and  _16
REMARK    7  A    between atoms: _19  and  _21
REMARK    8  A    between atoms: _21  and  _22
REMARK    9  A    between atoms: _21  and  _24
REMARK   10  A    between atoms: _24  and  _25
REMARK   11  A    between atoms: _25  and  _26
REMARK   12  A    between atoms: _31  and  _33
REMARK   13  A    between atoms: _33  and  _34
REMARK   14  A    between atoms: _33  and  _36
REMARK   15  A    between atoms: _36  and  _37
REMARK   16  A    between atoms: _42  and  _44
REMARK   17  A    between atoms: _44  and  _45
REMARK   18  A    between atoms: _44  and  _47
REMARK   19  A    between atoms: _47  and  _48
REMARK   20  A    between atoms: _51  and  _53
REMARK   21  A    between atoms: _53  and  _54
REMARK   22  A    between atoms: _53  and  _56
REMARK   23  A    between atoms: _56  and  _57
REMARK   24  A    between atoms: _57  and  _92
REMARK   25  A    between atoms: _58  and  _60
REMARK   26  A    between atoms: _60  and  _61
REMARK   27  A    between atoms: _63  and  _65
REMARK   28  A    between atoms: _65  and  _66
REMARK   29  A    between atoms: _69  and  _71
REMARK   30  A    between atoms: _71  and  _72
REMARK   31  A    between atoms: _75  and  _77
REMARK   32  A    between atoms: _77  and  _78
REMARK   33  A    between atoms: _77  and  _80
REMARK   34  A    between atoms: _80  and  _81
REMARK   35  A    between atoms: _86  and  _88
REMARK   36  A    between atoms: _88  and  _89
REMARK   37  A    between atoms: _88  and  _91
REMARK   38  A    between atoms: _91  and  _92
REMARK   39  A    between atoms: _93  and  _95
REMARK   40  A    between atoms: _95  and  _96
REMARK   41  A    between atoms: _95  and  _98
REMARK   42  A    between atoms: _98  and  _99
REMARK   43  A    between atoms: _104  and  _105
REMARK   44  A    between atoms: _107  and  _109
REMARK   45  A    between atoms: _109  and  _110
REMARK   46  A    between atoms: _109  and  _112
REMARK   47  A    between atoms: _112  and  _113
REMARK   48  A    between atoms: _116  and  _118
REMARK   49  A    between atoms: _118  and  _119
REMARK   50  A    between atoms: _118  and  _121
REMARK   51  A    between atoms: _121  and  _122
REMARK   52  A    between atoms: _125  and  _127
REMARK   53  A    between atoms: _127  and  _128
REMARK   54  A    between atoms: _127  and  _130
REMARK   55  A    between atoms: _130  and  _131
REMARK   56  A    between atoms: _134  and  _136
REMARK   57  A    between atoms: _136  and  _137
REMARK   58  A    between atoms: _136  and  _139
REMARK   59  A    between atoms: _139  and  _140
REMARK   60  A    between atoms: _145  and  _146
REMARK   61  A    between atoms: _148  and  _150
REMARK   62  A    between atoms: _150  and  _151
REMARK   63  A    between atoms: _150  and  _153
REMARK   64  A    between atoms: _153  and  _154
REMARK   65  A    between atoms: _164  and  _166
REMARK   66  A    between atoms: _166  and  _167
REMARK   67  A    between atoms: _166  and  _169
REMARK   68  A    between atoms: _169  and  _170
REMARK   69  A    between atoms: _175  and  _177
REMARK   70  A    between atoms: _177  and  _178
REMARK   71  A    between atoms: _177  and  _180
REMARK   72  A    between atoms: _180  and  _181
REMARK   73  A    between atoms: _184  and  _186
REMARK   74  A    between atoms: _186  and  _187
REMARK   75  A    between atoms: _186  and  _189
REMARK   76  A    between atoms: _189  and  _190
REMARK   77  A    between atoms: _196  and  _198
REMARK   78  A    between atoms: _198  and  _199
REMARK   79  A    between atoms: _198  and  _201
REMARK   80  A    between atoms: _201  and  _202
REMARK   81  A    between atoms: _205  and  _207
REMARK   82  A    between atoms: _207  and  _208
REMARK   83  A    between atoms: _207  and  _210
REMARK   84  A    between atoms: _210  and  _211
REMARK   85  A    between atoms: _217  and  _219
REMARK   86  A    between atoms: _219  and  _220
REMARK   87  A    between atoms: _219  and  _222
REMARK   88  A    between atoms: _222  and  _223
REMARK   89  A    between atoms: _226  and  _228
REMARK   90  A    between atoms: _228  and  _229
REMARK   91  A    between atoms: _228  and  _231
REMARK   92  A    between atoms: _231  and  _232
REMARK   93  A    between atoms: _235  and  _237
REMARK   94  A    between atoms: _237  and  _238
REMARK   95  A    between atoms: _237  and  _240
REMARK   96  A    between atoms: _243  and  _245
REMARK   97  A    between atoms: _245  and  _246
REMARK   98  A    between atoms: _248  and  _250
REMARK   99  A    between atoms: _250  and  _251
REMARK  100  A    between atoms: _250  and  _253
REMARK  101  A    between atoms: _253  and  _254
REMARK  102  A    between atoms: _259  and  _261
REMARK  103  A    between atoms: _261  and  _262
REMARK  104  A    between atoms: _261  and  _264
REMARK  105  A    between atoms: _264  and  _265
REMARK  106  A    between atoms: _270  and  _271
REMARK  107  A    between atoms: _273  and  _275
REMARK  108  A    between atoms: _275  and  _276
REMARK  109  A    between atoms: _278  and  _280
REMARK  110  A    between atoms: _280  and  _281
REMARK  111  A    between atoms: _280  and  _283
REMARK  112  A    between atoms: _283  and  _284
REMARK  113  A    between atoms: _287  and  _289
REMARK  114  A    between atoms: _289  and  _290
REMARK  115  A    between atoms: _289  and  _292
REMARK  116  A    between atoms: _292  and  _293
REMARK  117  A    between atoms: _297  and  _298
REMARK  118  A    between atoms: _303  and  _305
REMARK  119  A    between atoms: _305  and  _306
REMARK  120  A    between atoms: _305  and  _308
REMARK  121  A    between atoms: _308  and  _309
REMARK  122  A    between atoms: _309  and  _310
REMARK  123  A    between atoms: _315  and  _317
REMARK  124  A    between atoms: _317  and  _318
REMARK  125  A    between atoms: _317  and  _320
REMARK  126  A    between atoms: _320  and  _321
REMARK  127  A    between atoms: _321  and  _322
REMARK  128  A    between atoms: _327  and  _329
REMARK  129  A    between atoms: _329  and  _330
REMARK  130  A    between atoms: _329  and  _332
REMARK  131  A    between atoms: _332  and  _333
REMARK  132  A    between atoms: _336  and  _338
REMARK  133  A    between atoms: _338  and  _339
REMARK  134  A    between atoms: _338  and  _341
REMARK  135  A    between atoms: _341  and  _342
REMARK  136  A    between atoms: _342  and  _343
REMARK  137  A    between atoms: _345  and  _347
REMARK  138  A    between atoms: _347  and  _348
REMARK  139  A    between atoms: _347  and  _350
REMARK  140  A    between atoms: _353  and  _355
REMARK  141  A    between atoms: _355  and  _356
REMARK  142  A    between atoms: _355  and  _358
REMARK  143  A    between atoms: _361  and  _363
REMARK  144  A    between atoms: _363  and  _364
REMARK  145  A    between atoms: _363  and  _366
REMARK  146  A    between atoms: _366  and  _367
REMARK  147  A    between atoms: _370  and  _372
REMARK  148  A    between atoms: _372  and  _373
REMARK  149  A    between atoms: _372  and  _375
REMARK  150  A    between atoms: _375  and  _376
REMARK  151  A    between atoms: _378  and  _380
REMARK  152  A    between atoms: _380  and  _381
REMARK  153  A    between atoms: _380  and  _383
REMARK  154  A    between atoms: _383  and  _384
REMARK  155  A    between atoms: _384  and  _494
REMARK  156  A    between atoms: _385  and  _387
REMARK  157  A    between atoms: _387  and  _388
REMARK  158  A    between atoms: _387  and  _390
REMARK  159  A    between atoms: _390  and  _391
REMARK  160  A    between atoms: _391  and  _392
REMARK  161  A    between atoms: _397  and  _399
REMARK  162  A    between atoms: _399  and  _400
REMARK  163  A    between atoms: _402  and  _404
REMARK  164  A    between atoms: _404  and  _405
REMARK  165  A    between atoms: _404  and  _407
REMARK  166  A    between atoms: _407  and  _408
REMARK  167  A    between atoms: _411  and  _413
REMARK  168  A    between atoms: _413  and  _414
REMARK  169  A    between atoms: _413  and  _416
REMARK  170  A    between atoms: _416  and  _417
REMARK  171  A    between atoms: _419  and  _421
REMARK  172  A    between atoms: _421  and  _422
REMARK  173  A    between atoms: _424  and  _426
REMARK  174  A    between atoms: _426  and  _427
REMARK  175  A    between atoms: _429  and  _431
REMARK  176  A    between atoms: _431  and  _432
REMARK  177  A    between atoms: _431  and  _434
REMARK  178  A    between atoms: _437  and  _439
REMARK  179  A    between atoms: _439  and  _440
REMARK  180  A    between atoms: _439  and  _442
REMARK  181  A    between atoms: _445  and  _447
REMARK  182  A    between atoms: _447  and  _448
REMARK  183  A    between atoms: _447  and  _450
REMARK  184  A    between atoms: _450  and  _451
REMARK  185  A    between atoms: _453  and  _455
REMARK  186  A    between atoms: _455  and  _456
REMARK  187  A    between atoms: _455  and  _458
REMARK  188  A    between atoms: _458  and  _459
REMARK  189  A    between atoms: _469  and  _471
REMARK  190  A    between atoms: _471  and  _472
REMARK  191  A    between atoms: _474  and  _476
REMARK  192  A    between atoms: _476  and  _477
REMARK  193  A    between atoms: _476  and  _479
REMARK  194  A    between atoms: _479  and  _480
REMARK  195  A    between atoms: _483  and  _485
REMARK  196  A    between atoms: _485  and  _486
REMARK  197  A    between atoms: _488  and  _490
REMARK  198  A    between atoms: _490  and  _491
REMARK  199  A    between atoms: _490  and  _493
REMARK  200  A    between atoms: _493  and  _494
REMARK  201  A    between atoms: _495  and  _497
REMARK  202  A    between atoms: _497  and  _498
REMARK  203  A    between atoms: _501  and  _503
REMARK  204  A    between atoms: _503  and  _504
REMARK  205  A    between atoms: _503  and  _506
REMARK  206  A    between atoms: _506  and  _507
REMARK  207  A    between atoms: _507  and  _508
REMARK  208  A    between atoms: _513  and  _515
REMARK  209  A    between atoms: _515  and  _516
REMARK  210  A    between atoms: _515  and  _518
REMARK  211  A    between atoms: _518  and  _519
REMARK  212  A    between atoms: _519  and  _520
REMARK  213  A    between atoms: _520  and  _521
REMARK  214  A    between atoms: _521  and  _522
REMARK  215  A    between atoms: _527  and  _528
REMARK  216  A    between atoms: _533  and  _535
REMARK  217  A    between atoms: _535  and  _536
REMARK  218  A    between atoms: _538  and  _540
REMARK  219  A    between atoms: _540  and  _541
REMARK  220  A    between atoms: _540  and  _543
REMARK  221  A    between atoms: _546  and  _548
REMARK  222  A    between atoms: _548  and  _549
REMARK  223  A    between atoms: _548  and  _551
REMARK  224  A    between atoms: _551  and  _552
REMARK  225  A    between atoms: _557  and  _558
REMARK                            x       y       z     vdW  Elec       q    Type
REMARK                         _______ _______ _______ _____ _____    ______ ____
ROOT
ATOM      1  CA  VAL A   1      23.442  51.218  18.675  0.00  0.00    +0.133 C 
ENDROOT
BRANCH   1   2
ATOM      2  CB  VAL A   1      23.036  51.902  20.017  0.00  0.00    +0.023 C 
ATOM      3  CG2 VAL A   1      24.260  52.291  20.876  0.00  0.00    +0.002 C 
ATOM      4  CG1 VAL A   1      22.190  53.137  19.737  0.00  0.00    +0.002 C 
ENDBRANCH   1   2
BRANCH   1   5
ATOM      5  N   VAL A   1      24.026  49.881  18.871  0.00  0.00    -0.239 NA
ATOM      6  H   VAL A   1      24.868  49.774  19.472  0.00  0.00    +0.142 HD
ENDBRANCH   1   5
BRANCH   1   7
ATOM      7  C   VAL A   1      24.426  52.061  17.833  0.00  0.00    +0.224 C 
ATOM      8  O   VAL A   1      25.651  51.947  17.989  0.00  0.00    -0.287 OA
ENDBRANCH   1   7
TORSDOF 3
REMARK  Name = ../refined-set-2016/4jz1/4jz1_pocket.pdb
REMARK  225 active torsions:
REMARK  status: ('A' for Active; 'I' for Inactive)
REMARK    1  A    between atoms: _1  and  _5
REMARK    2  A    between atoms: _5  and  _6
REMARK    3  A    between atoms: _5  and  _8
REMARK    4  A    between atoms: _11  and  _13
REMARK    5  A    between atoms: _13  and  _14
REMARK    6  A    between atoms: _13  and  _16
REMARK    7  A    between atoms: _19  and  _21
REMARK    8  A    between atoms: _21  and  _22
REMARK    9  A    between atoms: _21  and  _24
REMARK   10  A    between atoms: _24  and  _25
REMARK   11  A    between atoms: _25  and  _26
REMARK   12  A    between atoms: _31  and  _33
REMARK   13  A    between atoms: _33  and  _34
REMARK   14  A    between atoms: _33  and  _36
REMARK   15  A    between atoms: _36  and  _37
REMARK   16  A    between atoms: _42  and  _44
REMARK   17  A    between atoms: _44  and  _45
REMARK   18  A    between atoms: _44  and  _47
REMARK   19  A    between atoms: _47  and  _48
REMARK   20  A    between atoms: _51  and  _53
REMARK   21  A    between atoms: _53  and  _54
REMARK   22  A    between atoms: _53  and  _56
REMARK   23  A    between atoms: _56  and  _57
REMARK   24  A    between atoms: _57  and  _92
REMARK   25  A    between atoms: _58  and  _60
REMARK   26  A    between atoms: _60  and  _61
REMARK   27  A    between atoms: _63  and  _65
REMARK   28  A    between atoms: _65  and  _66
REMARK   29  A    between atoms: _69  and  _71
REMARK   30  A    between atoms: _71  and  _72
REMARK   31  A    between atoms: _75  and  _77
REMARK   32  A    between atoms: _77  and  _78
REMARK   33  A    between atoms: _77  and  _80
REMARK   34  A    between atoms: _80  and  _81
REMARK   35  A    between atoms: _86  and  _88
REMARK   36  A    between atoms: _88  and  _89
REMARK   37  A    between atoms: _88  and  _91
REMARK   38  A    between atoms: _91  and  _92
REMARK   39  A    between atoms: _93  and  _95
REMARK   40  A    between atoms: _95  and  _96
REMARK   41  A    between atoms: _95  and  _98
REMARK   42  A    between atoms: _98  and  _99
REMARK   43  A    between atoms: _104  and  _105
REMARK   44  A    between atoms: _107  and  _109
REMARK   45  A    between atoms: _109  and  _110
REMARK   46  A    between atoms: _109  and  _112
REMARK   47  A    between atoms: _112  and  _113
REMARK   48  A    between atoms: _116  and  _118
REMARK   49  A    between atoms: _118  and  _119
REMARK   50  A    between atoms: _118  and  _121
REMARK   51  A    between atoms: _121  and  _122
REMARK   52  A    between atoms: _125  and  _127
REMARK   53  A    between atoms: _127  and  _128
REMARK   54  A    between atoms: _127  and  _130
REMARK   55  A    between atoms: _130  and  _131
REMARK   56  A    between atoms: _134  and  _136
REMARK   57  A    between atoms: _136  and  _137
REMARK   58  A    between atoms: _136  and  _139
REMARK   59  A    between atoms: _139  and  _140
REMARK   60  A    between atoms: _145  and  _146
REMARK   61  A    between atoms: _148  and  _150
REMARK   62  A    between atoms: _150  and  _151
REMARK   63  A    between atoms: _150  and  _153
REMARK   64  A    between atoms: _153  and  _154
REMARK   65  A    between atoms: _164  and  _166
REMARK   66  A    between atoms: _166  and  _167
REMARK   67  A    between atoms: _166  and  _169
REMARK   68  A    between atoms: _169  and  _170
REMARK   69  A    between atoms: _175  and  _177
REMARK   70  A    between atoms: _177  and  _178
REMARK   71  A    between atoms: _177  and  _180
REMARK   72  A    between atoms: _180  and  _181
REMARK   73  A    between atoms: _184  and  _186
REMARK   74  A    between atoms: _186  and  _187
REMARK   75  A    between atoms: _186  and  _189
REMARK   76  A    between atoms: _189  and  _190
REMARK   77  A    between atoms: _196  and  _198
REMARK   78  A    between atoms: _198  and  _199
REMARK   79  A    between atoms: _198  and  _201
REMARK   80  A    between atoms: _201  and  _202
REMARK   81  A    between atoms: _205  and  _207
REMARK   82  A    between atoms: _207  and  _208
REMARK   83  A    between atoms: _207  and  _210
REMARK   84  A    between atoms: _210  and  _211
REMARK   85  A    between atoms: _217  and  _219
REMARK   86  A    between atoms: _219  and  _220
REMARK   87  A    between atoms: _219  and  _222
REMARK   88  A    between atoms: _222  and  _223
REMARK   89  A    between atoms: _226  and  _228
REMARK   90  A    between atoms: _228  and  _229
REMARK   91  A    between atoms: _228  and  _231
REMARK   92  A    between atoms: _231  and  _232
REMARK   93  A    between atoms: _235  and  _237
REMARK   94  A    between atoms: _237  and  _238
REMARK   95  A    between atoms: _237  and  _240
REMARK   96  A    between atoms: _243  and  _245
REMARK   97  A    between atoms: _245  and  _246
REMARK   98  A    between atoms: _248  and  _250
REMARK   99  A    between atoms: _250  and  _251
REMARK  100  A    between atoms: _250  and  _253
REMARK  101  A    between atoms: _253  and  _254
REMARK  102  A    between atoms: _259  and  _261
REMARK  103  A    between atoms: _261  and  _262
REMARK  104  A    between atoms: _261  and  _264
REMARK  105  A    between atoms: _264  and  _265
REMARK  106  A    between atoms: _270  and  _271
REMARK  107  A    between atoms: _273  and  _275
REMARK  108  A    between atoms: _275  and  _276
REMARK  109  A    between atoms: _278  and  _280
REMARK  110  A    between atoms: _280  and  _281
REMARK  111  A    between atoms: _280  and  _283
REMARK  112  A    between atoms: _283  and  _284
REMARK  113  A    between atoms: _287  and  _289
REMARK  114  A    between atoms: _289  and  _290
REMARK  115  A    between atoms: _289  and  _292
REMARK  116  A    between atoms: _292  and  _293
REMARK  117  A    between atoms: _297  and  _298
REMARK  118  A    between atoms: _303  and  _305
REMARK  119  A    between atoms: _305  and  _306
REMARK  120  A    between atoms: _305  and  _308
REMARK  121  A    between atoms: _308  and  _309
REMARK  122  A    between atoms: _309  and  _310
REMARK  123  A    between atoms: _315  and  _317
REMARK  124  A    between atoms: _317  and  _318
REMARK  125  A    between atoms: _317  and  _320
REMARK  126  A    between atoms: _320  and  _321
REMARK  127  A    between atoms: _321  and  _322
REMARK  128  A    between atoms: _327  and  _329
REMARK  129  A    between atoms: _329  and  _330
REMARK  130  A    between atoms: _329  and  _332
REMARK  131  A    between atoms: _332  and  _333
REMARK  132  A    between atoms: _336  and  _338
REMARK  133  A    between atoms: _338  and  _339
REMARK  134  A    between atoms: _338  and  _341
REMARK  135  A    between atoms: _341  and  _342
REMARK  136  A    between atoms: _342  and  _343
REMARK  137  A    between atoms: _345  and  _347
REMARK  138  A    between atoms: _347  and  _348
REMARK  139  A    between atoms: _347  and  _350
REMARK  140  A    between atoms: _353  and  _355
REMARK  141  A    between atoms: _355  and  _356
REMARK  142  A    between atoms: _355  and  _358
REMARK  143  A    between atoms: _361  and  _363
REMARK  144  A    between atoms: _363  and  _364
REMARK  145  A    between atoms: _363  and  _366
REMARK  146  A    between atoms: _366  and  _367
REMARK  147  A    between atoms: _370  and  _372
REMARK  148  A    between atoms: _372  and  _373
REMARK  149  A    between atoms: _372  and  _375
REMARK  150  A    between atoms: _375  and  _376
REMARK  151  A    between atoms: _378  and  _380
REMARK  152  A    between atoms: _380  and  _381
REMARK  153  A    between atoms: _380  and  _383
REMARK  154  A    between atoms: _383  and  _384
REMARK  155  A    between atoms: _384  and  _494
REMARK  156  A    between atoms: _385  and  _387
REMARK  157  A    between atoms: _387  and  _388
REMARK  158  A    between atoms: _387  and  _390
REMARK  159  A    between atoms: _390  and  _391
REMARK  160  A    between atoms: _391  and  _392
REMARK  161  A    between atoms: _397  and  _399
REMARK  162  A    between atoms: _399  and  _400
REMARK  163  A    between atoms: _402  and  _404
REMARK  164  A    between atoms: _404  and  _405
REMARK  165  A    between atoms: _404  and  _407
REMARK  166  A    between atoms: _407  and  _408
REMARK  167  A    between atoms: _411  and  _413
REMARK  168  A    between atoms: _413  and  _414
REMARK  169  A    between atoms: _413  and  _416
REMARK  170  A    between atoms: _416  and  _417
REMARK  171  A    between atoms: _419  and  _421
REMARK  172  A    between atoms: _421  and  _422
REMARK  173  A    between atoms: _424  and  _426
REMARK  174  A    between atoms: _426  and  _427
REMARK  175  A    between atoms: _429  and  _431
REMARK  176  A    between atoms: _431  and  _432
REMARK  177  A    between atoms: _431  and  _434
REMARK  178  A    between atoms: _437  and  _439
REMARK  179  A    between atoms: _439  and  _440
REMARK  180  A    between atoms: _439  and  _442
REMARK  181  A    between atoms: _445  and  _447
REMARK  182  A    between atoms: _447  and  _448
REMARK  183  A    between atoms: _447  and  _450
REMARK  184  A    between atoms: _450  and  _451
REMARK  185  A    between atoms: _453  and  _455
REMARK  186  A    between atoms: _455  and  _456
REMARK  187  A    between atoms: _455  and  _458
REMARK  188  A    between atoms: _458  and  _459
REMARK  189  A    between atoms: _469  and  _471
REMARK  190  A    between atoms: _471  and  _472
REMARK  191  A    between atoms: _474  and  _476
REMARK  192  A    between atoms: _476  and  _477
REMARK  193  A    between atoms: _476  and  _479
REMARK  194  A    between atoms: _479  and  _480
REMARK  195  A    between atoms: _483  and  _485
REMARK  196  A    between atoms: _485  and  _486
REMARK  197  A    between atoms: _488  and  _490
REMARK  198  A    between atoms: _490  and  _491
REMARK  199  A    between atoms: _490  and  _493
REMARK  200  A    between atoms: _493  and  _494
REMARK  201  A    between atoms: _495  and  _497
REMARK  202  A    between atoms: _497  and  _498
REMARK  203  A    between atoms: _501  and  _503
REMARK  204  A    between atoms: _503  and  _504
REMARK  205  A    between atoms: _503  and  _506
REMARK  206  A    between atoms: _506  and  _507
REMARK  207  A    between atoms: _507  and  _508
REMARK  208  A    between atoms: _513  and  _515
REMARK  209  A    between atoms: _515  and  _516
REMARK  210  A    between atoms: _515  and  _518
REMARK  211  A    between atoms: _518  and  _519
REMARK  212  A    between atoms: _519  and  _520
REMARK  213  A    between atoms: _520  and  _521
REMARK  214  A    between atoms: _521  and  _522
REMARK  215  A    between atoms: _527  and  _528
REMARK  216  A    between atoms: _533  and  _535
REMARK  217  A    between atoms: _535  and  _536
REMARK  218  A    between atoms: _538  and  _540
REMARK  219  A    between atoms: _540  and  _541
REMARK  220  A    between atoms: _540  and  _543
REMARK  221  A    between atoms: _546  and  _548
REMARK  222  A    between atoms: _548  and  _549
REMARK  223  A    between atoms: _548  and  _551
REMARK  224  A    between atoms: _551  and  _552
REMARK  225  A    between atoms: _557  and  _558
REMARK                            x       y       z     vdW  Elec       q    Type
REMARK                         _______ _______ _______ _____ _____    ______ ____
ROOT
ATOM      1  CA  HIS A   2      26.772  63.295  21.421  0.00  0.00    +0.143 C 
ENDROOT
BRANCH   1   3
ATOM      2  C   GLY A   1      26.003  62.303  19.297  0.00  0.00    +0.240 C 
ATOM      3  N   HIS A   2      25.759  63.033  20.386  0.00  0.00    -0.298 N 
ATOM      4  H   HIS A   2      24.808  63.436  20.510  0.00  0.00    +0.150 HD
ATOM      5  O   GLY A   1      27.163  61.864  18.989  0.00  0.00    -0.274 OA
BRANCH   2   6
ATOM      6  CA  GLY A   1      24.809  62.020  18.410  0.00  0.00    +0.169 C 
BRANCH   6   7
ATOM      7  N   GLY A   1      25.266  61.181  17.278  0.00  0.00    -0.236 NA
ATOM      8  H   GLY A   1      25.123  60.151  17.303  0.00  0.00    +0.142 HD
ENDBRANCH   6   7
ENDBRANCH   2   6
ENDBRANCH   1   3
BRANCH   1   9
ATOM      9  C   HIS A   2      27.568  62.099  21.867  0.00  0.00    +0.227 C 
ATOM     10  O   HIS A   2      27.026  60.972  22.127  0.00  0.00    -0.286 OA
ENDBRANCH   1   9
BRANCH   1  11
ATOM     11  CB  HIS A   2      26.163  63.973  22.648  0.00  0.00    +0.075 C 
BRANCH  11  12
ATOM     12  CG  HIS A   2      25.540  65.300  22.339  0.00  0.00    +0.082 A 
ATOM     13  ND1 HIS A   2      24.929  66.024  23.258  0.00  0.00    -0.227 NA
ATOM     14  CE1 HIS A   2      24.473  67.171  22.703  0.00  0.00    +0.199 A 
ATOM     15  NE2 HIS A   2      24.851  67.185  21.425  0.00  0.00    -0.221 NA
ATOM     16  CD2 HIS A   2      25.531  66.059  21.163  0.00  0.00    +0.115 A 
ENDBRANCH  11  12
ENDBRANCH   1  11
TORSDOF 6
REMARK  Name = ../refined-set-2016/4jz1/4jz1_pocket.pdb
REMARK  225 active torsions:
REMARK  status: ('A' for Active; 'I' for Inactive)
REMARK    1  A    between atoms: _1  and  _5
REMARK    2  A    between atoms: _5  and  _6
REMARK    3  A    between atoms: _5  and  _8
REMARK    4  A    between atoms: _11  and  _13
REMARK    5  A    between atoms: _13  and  _14
REMARK    6  A    between atoms: _13  and  _16
REMARK    7  A    between atoms: _19  and  _21
REMARK    8  A    between atoms: _21  and  _22
REMARK    9  A    between atoms: _21  and  _24
REMARK   10  A    between atoms: _24  and  _25
REMARK   11  A    between atoms: _25  and  _26
REMARK   12  A    between atoms: _31  and  _33
REMARK   13  A    between atoms: _33  and  _34
REMARK   14  A    between atoms: _33  and  _36
REMARK   15  A    between atoms: _36  and  _37
REMARK   16  A    between atoms: _42  and  _44
REMARK   17  A    between atoms: _44  and  _45
REMARK   18  A    between atoms: _44  and  _47
REMARK   19  A    between atoms: _47  and  _48
REMARK   20  A    between atoms: _51  and  _53
REMARK   21  A    between atoms: _53  and  _54
REMARK   22  A    between atoms: _53  and  _56
REMARK   23  A    between atoms: _56  and  _57
REMARK   24  A    between atoms: _57  and  _92
REMARK   25  A    between atoms: _58  and  _60
REMARK   26  A    between atoms: _60  and  _61
REMARK   27  A    between atoms: _63  and  _65
REMARK   28  A    between atoms: _65  and  _66
REMARK   29  A    between atoms: _69  and  _71
REMARK   30  A    between atoms: _71  and  _72
REMARK   31  A    between atoms: _75  and  _77
REMARK   32  A    between atoms: _77  and  _78
REMARK   33  A    between atoms: _77  and  _80
REMARK   34  A    between atoms: _80  and  _81
REMARK   35  A    between atoms: _86  and  _88
REMARK   36  A    between atoms: _88  and  _89
REMARK   37  A    between atoms: _88  and  _91
REMARK   38  A    between atoms: _91  and  _92
REMARK   39  A    between atoms: _93  and  _95
REMARK   40  A    between atoms: _95  and  _96
REMARK   41  A    between atoms: _95  and  _98
REMARK   42  A    between atoms: _98  and  _99
REMARK   43  A    between atoms: _104  and  _105
REMARK   44  A    between atoms: _107  and  _109
REMARK   45  A    between atoms: _109  and  _110
REMARK   46  A    between atoms: _109  and  _112
REMARK   47  A    between atoms: _112  and  _113
REMARK   48  A    between atoms: _116  and  _118
REMARK   49  A    between atoms: _118  and  _119
REMARK   50  A    between atoms: _118  and  _121
REMARK   51  A    between atoms: _121  and  _122
REMARK   52  A    between atoms: _125  and  _127
REMARK   53  A    between atoms: _127  and  _128
REMARK   54  A    between atoms: _127  and  _130
REMARK   55  A    between atoms: _130  and  _131
REMARK   56  A    between atoms: _134  and  _136
REMARK   57  A    between atoms: _136  and  _137
REMARK   58  A    between atoms: _136  and  _139
REMARK   59  A    between atoms: _139  and  _140
REMARK   60  A    between atoms: _145  and  _146
REMARK   61  A    between atoms: _148  and  _150
REMARK   62  A    between atoms: _150  and  _151
REMARK   63  A    between atoms: _150  and  _153
REMARK   64  A    between atoms: _153  and  _154
REMARK   65  A    between atoms: _164  and  _166
REMARK   66  A    between atoms: _166  and  _167
REMARK   67  A    between atoms: _166  and  _169
REMARK   68  A    between atoms: _169  and  _170
REMARK   69  A    between atoms: _175  and  _177
REMARK   70  A    between atoms: _177  and  _178
REMARK   71  A    between atoms: _177  and  _180
REMARK   72  A    between atoms: _180  and  _181
REMARK   73  A    between atoms: _184  and  _186
REMARK   74  A    between atoms: _186  and  _187
REMARK   75  A    between atoms: _186  and  _189
REMARK   76  A    between atoms: _189  and  _190
REMARK   77  A    between atoms: _196  and  _198
REMARK   78  A    between atoms: _198  and  _199
REMARK   79  A    between atoms: _198  and  _201
REMARK   80  A    between atoms: _201  and  _202
REMARK   81  A    between atoms: _205  and  _207
REMARK   82  A    between atoms: _207  and  _208
REMARK   83  A    between atoms: _207  and  _210
REMARK   84  A    between atoms: _210  and  _211
REMARK   85  A    between atoms: _217  and  _219
REMARK   86  A    between atoms: _219  and  _220
REMARK   87  A    between atoms: _219  and  _222
REMARK   88  A    between atoms: _222  and  _223
REMARK   89  A    between atoms: _226  and  _228
REMARK   90  A    between atoms: _228  and  _229
REMARK   91  A    between atoms: _228  and  _231
REMARK   92  A    between atoms: _231  and  _232
REMARK   93  A    between atoms: _235  and  _237
REMARK   94  A    between atoms: _237  and  _238
REMARK   95  A    between atoms: _237  and  _240
REMARK   96  A    between atoms: _243  and  _245
REMARK   97  A    between atoms: _245  and  _246
REMARK   98  A    between atoms: _248  and  _250
REMARK   99  A    between atoms: _250  and  _251
REMARK  100  A    between atoms: _250  and  _253
REMARK  101  A    between atoms: _253  and  _254
REMARK  102  A    between atoms: _259  and  _261
REMARK  103  A    between atoms: _261  and  _262
REMARK  104  A    between atoms: _261  and  _264
REMARK  105  A    between atoms: _264  and  _265
REMARK  106  A    between atoms: _270  and  _271
REMARK  107  A    between atoms: _273  and  _275
REMARK  108  A    between atoms: _275  and  _276
REMARK  109  A    between atoms: _278  and  _280
REMARK  110  A    between atoms: _280  and  _281
REMARK  111  A    between atoms: _280  and  _283
REMARK  112  A    between atoms: _283  and  _284
REMARK  113  A    between atoms: _287  and  _289
REMARK  114  A    between atoms: _289  and  _290
REMARK  115  A    between atoms: _289  and  _292
REMARK  116  A    between atoms: _292  and  _293
REMARK  117  A    between atoms: _297  and  _298
REMARK  118  A    between atoms: _303  and  _305
REMARK  119  A    between atoms: _305  and  _306
REMARK  120  A    between atoms: _305  and  _308
REMARK  121  A    between atoms: _308  and  _309
REMARK  122  A    between atoms: _309  and  _310
REMARK  123  A    between atoms: _315  and  _317
REMARK  124  A    between atoms: _317  and  _318
REMARK  125  A    between atoms: _317  and  _320
REMARK  126  A    between atoms: _320  and  _321
REMARK  127  A    between atoms: _321  and  _322
REMARK  128  A    between atoms: _327  and  _329
REMARK  129  A    between atoms: _329  and  _330
REMARK  130  A    between atoms: _329  and  _332
REMARK  131  A    between atoms: _332  and  _333
REMARK  132  A    between atoms: _336  and  _338
REMARK  133  A    between atoms: _338  and  _339
REMARK  134  A    between atoms: _338  and  _341
REMARK  135  A    between atoms: _341  and  _342
REMARK  136  A    between atoms: _342  and  _343
REMARK  137  A    between atoms: _345  and  _347
REMARK  138  A    between atoms: _347  and  _348
REMARK  139  A    between atoms: _347  and  _350
REMARK  140  A    between atoms: _353  and  _355
REMARK  141  A    between atoms: _355  and  _356
REMARK  142  A    between atoms: _355  and  _358
REMARK  143  A    between atoms: _361  and  _363
REMARK  144  A    between atoms: _363  and  _364
REMARK  145  A    between atoms: _363  and  _366
REMARK  146  A    between atoms: _366  and  _367
REMARK  147  A    between atoms: _370  and  _372
REMARK  148  A    between atoms: _372  and  _373
REMARK  149  A    between atoms: _372  and  _375
REMARK  150  A    between atoms: _375  and  _376
REMARK  151  A    between atoms: _378  and  _380
REMARK  152  A    between atoms: _380  and  _381
REMARK  153  A    between atoms: _380  and  _383
REMARK  154  A    between atoms: _383  and  _384
REMARK  155  A    between atoms: _384  and  _494
REMARK  156  A    between atoms: _385  and  _387
REMARK  157  A    between atoms: _387  and  _388
REMARK  158  A    between atoms: _387  and  _390
REMARK  159  A    between atoms: _390  and  _391
REMARK  160  A    between atoms: _391  and  _392
REMARK  161  A    between atoms: _397  and  _399
REMARK  162  A    between atoms: _399  and  _400
REMARK  163  A    between atoms: _402  and  _404
REMARK  164  A    between atoms: _404  and  _405
REMARK  165  A    between atoms: _404  and  _407
REMARK  166  A    between atoms: _407  and  _408
REMARK  167  A    between atoms: _411  and  _413
REMARK  168  A    between atoms: _413  and  _414
REMARK  169  A    between atoms: _413  and  _416
REMARK  170  A    between atoms: _416  and  _417
REMARK  171  A    between atoms: _419  and  _421
REMARK  172  A    between atoms: _421  and  _422
REMARK  173  A    between atoms: _424  and  _426
REMARK  174  A    between atoms: _426  and  _427
REMARK  175  A    between atoms: _429  and  _431
REMARK  176  A    between atoms: _431  and  _432
REMARK  177  A    between atoms: _431  and  _434
REMARK  178  A    between atoms: _437  and  _439
REMARK  179  A    between atoms: _439  and  _440
REMARK  180  A    between atoms: _439  and  _442
REMARK  181  A    between atoms: _445  and  _447
REMARK  182  A    between atoms: _447  and  _448
REMARK  183  A    between atoms: _447  and  _450
REMARK  184  A    between atoms: _450  and  _451
REMARK  185  A    between atoms: _453  and  _455
REMARK  186  A    between atoms: _455  and  _456
REMARK  187  A    between atoms: _455  and  _458
REMARK  188  A    between atoms: _458  and  _459
REMARK  189  A    between atoms: _469  and  _471
REMARK  190  A    between atoms: _471  and  _472
REMARK  191  A    between atoms: _474  and  _476
REMARK  192  A    between atoms: _476  and  _477
REMARK  193  A    between atoms: _476  and  _479
REMARK  194  A    between atoms: _479  and  _480
REMARK  195  A    between atoms: _483  and  _485
REMARK  196  A    between atoms: _485  and  _486
REMARK  197  A    between atoms: _488  and  _490
REMARK  198  A    between atoms: _490  and  _491
REMARK  199  A    between atoms: _490  and  _493
REMARK  200  A    between atoms: _493  and  _494
REMARK  201  A    between atoms: _495  and  _497
REMARK  202  A    between atoms: _497  and  _498
REMARK  203  A    between atoms: _501  and  _503
REMARK  204  A    between atoms: _503  and  _504
REMARK  205  A    between atoms: _503  and  _506
REMARK  206  A    between atoms: _506  and  _507
REMARK  207  A    between atoms: _507  and  _508
REMARK  208  A    between atoms: _513  and  _515
REMARK  209  A    between atoms: _515  and  _516
REMARK  210  A    between atoms: _515  and  _518
REMARK  211  A    between atoms: _518  and  _519
REMARK  212  A    between atoms: _519  and  _520
REMARK  213  A    between atoms: _520  and  _521
REMARK  214  A    between atoms: _521  and  _522
REMARK  215  A    between atoms: _527  and  _528
REMARK  216  A    between atoms: _533  and  _535
REMARK  217  A    between atoms: _535  and  _536
REMARK  218  A    between atoms: _538  and  _540
REMARK  219  A    between atoms: _540  and  _541
REMARK  220  A    between atoms: _540  and  _543
REMARK  221  A    between atoms: _546  and  _548
REMARK  222  A    between atoms: _548  and  _549
REMARK  223  A    between atoms: _548  and  _551
REMARK  224  A    between atoms: _551  and  _552
REMARK  225  A    between atoms: _557  and  _558
REMARK                            x       y       z     vdW  Elec       q    Type
REMARK                         _______ _______ _______ _____ _____    ______ ____
ROOT
ATOM      1  CA  TYR A   1      26.393  63.921  27.970  0.00  0.00    +0.149 C 
ENDROOT
BRANCH   1   2
ATOM      2  C   TYR A   1      26.828  65.410  28.059  0.00  0.00    +0.239 C 
ATOM      3  O   TYR A   1      27.894  65.730  28.620  0.00  0.00    -0.274 OA
ATOM      4  N   GLY A   2      26.043  66.319  27.478  0.00  0.00    -0.297 N 
ATOM      5  H   GLY A   2      25.130  66.037  27.068  0.00  0.00    +0.150 HD
BRANCH   4   6
ATOM      6  CA  GLY A   2      26.489  67.755  27.421  0.00  0.00    +0.163 C 
BRANCH   6   7
ATOM      7  C   GLY A   2      27.622  67.985  26.411  0.00  0.00    +0.229 C 
ATOM      8  O   GLY A   2      28.153  69.099  26.260  0.00  0.00    -0.286 OA
ENDBRANCH   6   7
ENDBRANCH   4   6
ENDBRANCH   1   2
BRANCH   1   9
ATOM      9  N   TYR A   1      27.544  63.129  27.536  0.00  0.00    -0.238 NA
ATOM     10  H   TYR A   1      27.925  62.381  28.150  0.00  0.00    +0.142 HD
ENDBRANCH   1   9
BRANCH   1  11
ATOM     11  CB  TYR A   1      25.686  63.396  29.259  0.00  0.00    +0.053 C 
BRANCH  11  12
ATOM     12  CG  TYR A   1      24.563  64.353  29.614  0.00  0.00    -0.020 A 
ATOM     13  CD2 TYR A   1      24.712  65.301  30.677  0.00  0.00    -0.001 A 
ATOM     14  CE2 TYR A   1      23.695  66.247  30.943  0.00  0.00    +0.036 A 
ATOM     15  CZ  TYR A   1      22.545  66.264  30.141  0.00  0.00    +0.134 A 
ATOM     16  CE1 TYR A   1      22.404  65.369  29.070  0.00  0.00    +0.036 A 
ATOM     17  CD1 TYR A   1      23.403  64.425  28.814  0.00  0.00    -0.001 A 
BRANCH  15  18
ATOM     18  OH  TYR A   1      21.530  67.174  30.373  0.00  0.00    -0.506 OA
ATOM     19  HH  TYR A   1      20.807  67.035  29.712  0.00  0.00    +0.292 HD
ENDBRANCH  15  18
ENDBRANCH  11  12
ENDBRANCH   1  11
TORSDOF 7
REMARK  Name = ../refined-set-2016/4jz1/4jz1_pocket.pdb
REMARK  225 active torsions:
REMARK  status: ('A' for Active; 'I' for Inactive)
REMARK    1  A    between atoms: _1  and  _5
REMARK    2  A    between atoms: _5  and  _6
REMARK    3  A    between atoms: _5  and  _8
REMARK    4  A    between atoms: _11  and  _13
REMARK    5  A    between atoms: _13  and  _14
REMARK    6  A    between atoms: _13  and  _16
REMARK    7  A    between atoms: _19  and  _21
REMARK    8  A    between atoms: _21  and  _22
REMARK    9  A    between atoms: _21  and  _24
REMARK   10  A    between atoms: _24  and  _25
REMARK   11  A    between atoms: _25  and  _26
REMARK   12  A    between atoms: _31  and  _33
REMARK   13  A    between atoms: _33  and  _34
REMARK   14  A    between atoms: _33  and  _36
REMARK   15  A    between atoms: _36  and  _37
REMARK   16  A    between atoms: _42  and  _44
REMARK   17  A    between atoms: _44  and  _45
REMARK   18  A    between atoms: _44  and  _47
REMARK   19  A    between atoms: _47  and  _48
REMARK   20  A    between atoms: _51  and  _53
REMARK   21  A    between atoms: _53  and  _54
REMARK   22  A    between atoms: _53  and  _56
REMARK   23  A    between atoms: _56  and  _57
REMARK   24  A    between atoms: _57  and  _92
REMARK   25  A    between atoms: _58  and  _60
REMARK   26  A    between atoms: _60  and  _61
REMARK   27  A    between atoms: _63  and  _65
REMARK   28  A    between atoms: _65  and  _66
REMARK   29  A    between atoms: _69  and  _71
REMARK   30  A    between atoms: _71  and  _72
REMARK   31  A    between atoms: _75  and  _77
REMARK   32  A    between atoms: _77  and  _78
REMARK   33  A    between atoms: _77  and  _80
REMARK   34  A    between atoms: _80  and  _81
REMARK   35  A    between atoms: _86  and  _88
REMARK   36  A    between atoms: _88  and  _89
REMARK   37  A    between atoms: _88  and  _91
REMARK   38  A    between atoms: _91  and  _92
REMARK   39  A    between atoms: _93  and  _95
REMARK   40  A    between atoms: _95  and  _96
REMARK   41  A    between atoms: _95  and  _98
REMARK   42  A    between atoms: _98  and  _99
REMARK   43  A    between atoms: _104  and  _105
REMARK   44  A    between atoms: _107  and  _109
REMARK   45  A    between atoms: _109  and  _110
REMARK   46  A    between atoms: _109  and  _112
REMARK   47  A    between atoms: _112  and  _113
REMARK   48  A    between atoms: _116  and  _118
REMARK   49  A    between atoms: _118  and  _119
REMARK   50  A    between atoms: _118  and  _121
REMARK   51  A    between atoms: _121  and  _122
REMARK   52  A    between atoms: _125  and  _127
REMARK   53  A    between atoms: _127  and  _128
REMARK   54  A    between atoms: _127  and  _130
REMARK   55  A    between atoms: _130  and  _131
REMARK   56  A    between atoms: _134  and  _136
REMARK   57  A    between atoms: _136  and  _137
REMARK   58  A    between atoms: _136  and  _139
REMARK   59  A    between atoms: _139  and  _140
REMARK   60  A    between atoms: _145  and  _146
REMARK   61  A    between atoms: _148  and  _150
REMARK   62  A    between atoms: _150  and  _151
REMARK   63  A    between atoms: _150  and  _153
REMARK   64  A    between atoms: _153  and  _154
REMARK   65  A    between atoms: _164  and  _166
REMARK   66  A    between atoms: _166  and  _167
REMARK   67  A    between atoms: _166  and  _169
REMARK   68  A    between atoms: _169  and  _170
REMARK   69  A    between atoms: _175  and  _177
REMARK   70  A    between atoms: _177  and  _178
REMARK   71  A    between atoms: _177  and  _180
REMARK   72  A    between atoms: _180  and  _181
REMARK   73  A    between atoms: _184  and  _186
REMARK   74  A    between atoms: _186  and  _187
REMARK   75  A    between atoms: _186  and  _189
REMARK   76  A    between atoms: _189  and  _190
REMARK   77  A    between atoms: _196  and  _198
REMARK   78  A    between atoms: _198  and  _199
REMARK   79  A    between atoms: _198  and  _201
REMARK   80  A    between atoms: _201  and  _202
REMARK   81  A    between atoms: _205  and  _207
REMARK   82  A    between atoms: _207  and  _208
REMARK   83  A    between atoms: _207  and  _210
REMARK   84  A    between atoms: _210  and  _211
REMARK   85  A    between atoms: _217  and  _219
REMARK   86  A    between atoms: _219  and  _220
REMARK   87  A    between atoms: _219  and  _222
REMARK   88  A    between atoms: _222  and  _223
REMARK   89  A    between atoms: _226  and  _228
REMARK   90  A    between atoms: _228  and  _229
REMARK   91  A    between atoms: _228  and  _231
REMARK   92  A    between atoms: _231  and  _232
REMARK   93  A    between atoms: _235  and  _237
REMARK   94  A    between atoms: _237  and  _238
REMARK   95  A    between atoms: _237  and  _240
REMARK   96  A    between atoms: _243  and  _245
REMARK   97  A    between atoms: _245  and  _246
REMARK   98  A    between atoms: _248  and  _250
REMARK   99  A    between atoms: _250  and  _251
REMARK  100  A    between atoms: _250  and  _253
REMARK  101  A    between atoms: _253  and  _254
REMARK  102  A    between atoms: _259  and  _261
REMARK  103  A    between atoms: _261  and  _262
REMARK  104  A    between atoms: _261  and  _264
REMARK  105  A    between atoms: _264  and  _265
REMARK  106  A    between atoms: _270  and  _271
REMARK  107  A    between atoms: _273  and  _275
REMARK  108  A    between atoms: _275  and  _276
REMARK  109  A    between atoms: _278  and  _280
REMARK  110  A    between atoms: _280  and  _281
REMARK  111  A    between atoms: _280  and  _283
REMARK  112  A    between atoms: _283  and  _284
REMARK  113  A    between atoms: _287  and  _289
REMARK  114  A    between atoms: _289  and  _290
REMARK  115  A    between atoms: _289  and  _292
REMARK  116  A    between atoms: _292  and  _293
REMARK  117  A    between atoms: _297  and  _298
REMARK  118  A    between atoms: _303  and  _305
REMARK  119  A    between atoms: _305  and  _306
REMARK  120  A    between atoms: _305  and  _308
REMARK  121  A    between atoms: _308  and  _309
REMARK  122  A    between atoms: _309  and  _310
REMARK  123  A    between atoms: _315  and  _317
REMARK  124  A    between atoms: _317  and  _318
REMARK  125  A    between atoms: _317  and  _320
REMARK  126  A    between atoms: _320  and  _321
REMARK  127  A    between atoms: _321  and  _322
REMARK  128  A    between atoms: _327  and  _329
REMARK  129  A    between atoms: _329  and  _330
REMARK  130  A    between atoms: _329  and  _332
REMARK  131  A    between atoms: _332  and  _333
REMARK  132  A    between atoms: _336  and  _338
REMARK  133  A    between atoms: _338  and  _339
REMARK  134  A    between atoms: _338  and  _341
REMARK  135  A    between atoms: _341  and  _342
REMARK  136  A    between atoms: _342  and  _343
REMARK  137  A    between atoms: _345  and  _347
REMARK  138  A    between atoms: _347  and  _348
REMARK  139  A    between atoms: _347  and  _350
REMARK  140  A    between atoms: _353  and  _355
REMARK  141  A    between atoms: _355  and  _356
REMARK  142  A    between atoms: _355  and  _358
REMARK  143  A    between atoms: _361  and  _363
REMARK  144  A    between atoms: _363  and  _364
REMARK  145  A    between atoms: _363  and  _366
REMARK  146  A    between atoms: _366  and  _367
REMARK  147  A    between atoms: _370  and  _372
REMARK  148  A    between atoms: _372  and  _373
REMARK  149  A    between atoms: _372  and  _375
REMARK  150  A    between atoms: _375  and  _376
REMARK  151  A    between atoms: _378  and  _380
REMARK  152  A    between atoms: _380  and  _381
REMARK  153  A    between atoms: _380  and  _383
REMARK  154  A    between atoms: _383  and  _384
REMARK  155  A    between atoms: _384  and  _494
REMARK  156  A    between atoms: _385  and  _387
REMARK  157  A    between atoms: _387  and  _388
REMARK  158  A    between atoms: _387  and  _390
REMARK  159  A    between atoms: _390  and  _391
REMARK  160  A    between atoms: _391  and  _392
REMARK  161  A    between atoms: _397  and  _399
REMARK  162  A    between atoms: _399  and  _400
REMARK  163  A    between atoms: _402  and  _404
REMARK  164  A    between atoms: _404  and  _405
REMARK  165  A    between atoms: _404  and  _407
REMARK  166  A    between atoms: _407  and  _408
REMARK  167  A    between atoms: _411  and  _413
REMARK  168  A    between atoms: _413  and  _414
REMARK  169  A    between atoms: _413  and  _416
REMARK  170  A    between atoms: _416  and  _417
REMARK  171  A    between atoms: _419  and  _421
REMARK  172  A    between atoms: _421  and  _422
REMARK  173  A    between atoms: _424  and  _426
REMARK  174  A    between atoms: _426  and  _427
REMARK  175  A    between atoms: _429  and  _431
REMARK  176  A    between atoms: _431  and  _432
REMARK  177  A    between atoms: _431  and  _434
REMARK  178  A    between atoms: _437  and  _439
REMARK  179  A    between atoms: _439  and  _440
REMARK  180  A    between atoms: _439  and  _442
REMARK  181  A    between atoms: _445  and  _447
REMARK  182  A    between atoms: _447  and  _448
REMARK  183  A    between atoms: _447  and  _450
REMARK  184  A    between atoms: _450  and  _451
REMARK  185  A    between atoms: _453  and  _455
REMARK  186  A    between atoms: _455  and  _456
REMARK  187  A    between atoms: _455  and  _458
REMARK  188  A    between atoms: _458  and  _459
REMARK  189  A    between atoms: _469  and  _471
REMARK  190  A    between atoms: _471  and  _472
REMARK  191  A    between atoms: _474  and  _476
REMARK  192  A    between atoms: _476  and  _477
REMARK  193  A    between atoms: _476  and  _479
REMARK  194  A    between atoms: _479  and  _480
REMARK  195  A    between atoms: _483  and  _485
REMARK  196  A    between atoms: _485  and  _486
REMARK  197  A    between atoms: _488  and  _490
REMARK  198  A    between atoms: _490  and  _491
REMARK  199  A    between atoms: _490  and  _493
REMARK  200  A    between atoms: _493  and  _494
REMARK  201  A    between atoms: _495  and  _497
REMARK  202  A    between atoms: _497  and  _498
REMARK  203  A    between atoms: _501  and  _503
REMARK  204  A    between atoms: _503  and  _504
REMARK  205  A    between atoms: _503  and  _506
REMARK  206  A    between atoms: _506  and  _507
REMARK  207  A    between atoms: _507  and  _508
REMARK  208  A    between atoms: _513  and  _515
REMARK  209  A    between atoms: _515  and  _516
REMARK  210  A    between atoms: _515  and  _518
REMARK  211  A    between atoms: _518  and  _519
REMARK  212  A    between atoms: _519  and  _520
REMARK  213  A    between atoms: _520  and  _521
REMARK  214  A    between atoms: _521  and  _522
REMARK  215  A    between atoms: _527  and  _528
REMARK  216  A    between atoms: _533  and  _535
REMARK  217  A    between atoms: _535  and  _536
REMARK  218  A    between atoms: _538  and  _540
REMARK  219  A    between atoms: _540  and  _541
REMARK  220  A    between atoms: _540  and  _543
REMARK  221  A    between atoms: _546  and  _548
REMARK  222  A    between atoms: _548  and  _549
REMARK  223  A    between atoms: _548  and  _551
REMARK  224  A    between atoms: _551  and  _552
REMARK  225  A    between atoms: _557  and  _558
REMARK                            x       y       z     vdW  Elec       q    Type
REMARK                         _______ _______ _______ _____ _____    ______ ____
ROOT
ATOM      1  CA  ILE A   1      24.885  47.307  24.554  0.00  0.00    +0.133 C 
ENDROOT
BRANCH   1   2
ATOM      2  N   ILE A   1      25.646  47.151  23.289  0.00  0.00    -0.239 NA
ATOM      3  H   ILE A   1      25.163  46.767  22.452  0.00  0.00    +0.142 HD
ENDBRANCH   1   2
BRANCH   1   4
ATOM      4  C   ILE A   1      24.065  45.995  24.689  0.00  0.00    +0.224 C 
ATOM      5  O   ILE A   1      24.120  45.150  23.783  0.00  0.00    -0.287 OA
ENDBRANCH   1   4
BRANCH   1   6
ATOM      6  CB  ILE A   1      23.973  48.583  24.538  0.00  0.00    +0.023 C 
ATOM      7  CG2 ILE A   1      24.785  49.917  24.741  0.00  0.00    +0.002 C 
BRANCH   6   8
ATOM      8  CG1 ILE A   1      23.177  48.686  23.216  0.00  0.00    +0.002 C 
ATOM      9  CD1 ILE A   1      22.170  49.822  23.193  0.00  0.00    +0.000 C 
ENDBRANCH   6   8
ENDBRANCH   1   6
TORSDOF 4
REMARK  Name = ../refined-set-2016/4jz1/4jz1_pocket.pdb
REMARK  225 active torsions:
REMARK  status: ('A' for Active; 'I' for Inactive)
REMARK    1  A    between atoms: _1  and  _5
REMARK    2  A    between atoms: _5  and  _6
REMARK    3  A    between atoms: _5  and  _8
REMARK    4  A    between atoms: _11  and  _13
REMARK    5  A    between atoms: _13  and  _14
REMARK    6  A    between atoms: _13  and  _16
REMARK    7  A    between atoms: _19  and  _21
REMARK    8  A    between atoms: _21  and  _22
REMARK    9  A    between atoms: _21  and  _24
REMARK   10  A    between atoms: _24  and  _25
REMARK   11  A    between atoms: _25  and  _26
REMARK   12  A    between atoms: _31  and  _33
REMARK   13  A    between atoms: _33  and  _34
REMARK   14  A    between atoms: _33  and  _36
REMARK   15  A    between atoms: _36  and  _37
REMARK   16  A    between atoms: _42  and  _44
REMARK   17  A    between atoms: _44  and  _45
REMARK   18  A    between atoms: _44  and  _47
REMARK   19  A    between atoms: _47  and  _48
REMARK   20  A    between atoms: _51  and  _53
REMARK   21  A    between atoms: _53  and  _54
REMARK   22  A    between atoms: _53  and  _56
REMARK   23  A    between atoms: _56  and  _57
REMARK   24  A    between atoms: _57  and  _92
REMARK   25  A    between atoms: _58  and  _60
REMARK   26  A    between atoms: _60  and  _61
REMARK   27  A    between atoms: _63  and  _65
REMARK   28  A    between atoms: _65  and  _66
REMARK   29  A    between atoms: _69  and  _71
REMARK   30  A    between atoms: _71  and  _72
REMARK   31  A    between atoms: _75  and  _77
REMARK   32  A    between atoms: _77  and  _78
REMARK   33  A    between atoms: _77  and  _80
REMARK   34  A    between atoms: _80  and  _81
REMARK   35  A    between atoms: _86  and  _88
REMARK   36  A    between atoms: _88  and  _89
REMARK   37  A    between atoms: _88  and  _91
REMARK   38  A    between atoms: _91  and  _92
REMARK   39  A    between atoms: _93  and  _95
REMARK   40  A    between atoms: _95  and  _96
REMARK   41  A    between atoms: _95  and  _98
REMARK   42  A    between atoms: _98  and  _99
REMARK   43  A    between atoms: _104  and  _105
REMARK   44  A    between atoms: _107  and  _109
REMARK   45  A    between atoms: _109  and  _110
REMARK   46  A    between atoms: _109  and  _112
REMARK   47  A    between atoms: _112  and  _113
REMARK   48  A    between atoms: _116  and  _118
REMARK   49  A    between atoms: _118  and  _119
REMARK   50  A    between atoms: _118  and  _121
REMARK   51  A    between atoms: _121  and  _122
REMARK   52  A    between atoms: _125  and  _127
REMARK   53  A    between atoms: _127  and  _128
REMARK   54  A    between atoms: _127  and  _130
REMARK   55  A    between atoms: _130  and  _131
REMARK   56  A    between atoms: _134  and  _136
REMARK   57  A    between atoms: _136  and  _137
REMARK   58  A    between atoms: _136  and  _139
REMARK   59  A    between atoms: _139  and  _140
REMARK   60  A    between atoms: _145  and  _146
REMARK   61  A    between atoms: _148  and  _150
REMARK   62  A    between atoms: _150  and  _151
REMARK   63  A    between atoms: _150  and  _153
REMARK   64  A    between atoms: _153  and  _154
REMARK   65  A    between atoms: _164  and  _166
REMARK   66  A    between atoms: _166  and  _167
REMARK   67  A    between atoms: _166  and  _169
REMARK   68  A    between atoms: _169  and  _170
REMARK   69  A    between atoms: _175  and  _177
REMARK   70  A    between atoms: _177  and  _178
REMARK   71  A    between atoms: _177  and  _180
REMARK   72  A    between atoms: _180  and  _181
REMARK   73  A    between atoms: _184  and  _186
REMARK   74  A    between atoms: _186  and  _187
REMARK   75  A    between atoms: _186  and  _189
REMARK   76  A    between atoms: _189  and  _190
REMARK   77  A    between atoms: _196  and  _198
REMARK   78  A    between atoms: _198  and  _199
REMARK   79  A    between atoms: _198  and  _201
REMARK   80  A    between atoms: _201  and  _202
REMARK   81  A    between atoms: _205  and  _207
REMARK   82  A    between atoms: _207  and  _208
REMARK   83  A    between atoms: _207  and  _210
REMARK   84  A    between atoms: _210  and  _211
REMARK   85  A    between atoms: _217  and  _219
REMARK   86  A    between atoms: _219  and  _220
REMARK   87  A    between atoms: _219  and  _222
REMARK   88  A    between atoms: _222  and  _223
REMARK   89  A    between atoms: _226  and  _228
REMARK   90  A    between atoms: _228  and  _229
REMARK   91  A    between atoms: _228  and  _231
REMARK   92  A    between atoms: _231  and  _232
REMARK   93  A    between atoms: _235  and  _237
REMARK   94  A    between atoms: _237  and  _238
REMARK   95  A    between atoms: _237  and  _240
REMARK   96  A    between atoms: _243  and  _245
REMARK   97  A    between atoms: _245  and  _246
REMARK   98  A    between atoms: _248  and  _250
REMARK   99  A    between atoms: _250  and  _251
REMARK  100  A    between atoms: _250  and  _253
REMARK  101  A    between atoms: _253  and  _254
REMARK  102  A    between atoms: _259  and  _261
REMARK  103  A    between atoms: _261  and  _262
REMARK  104  A    between atoms: _261  and  _264
REMARK  105  A    between atoms: _264  and  _265
REMARK  106  A    between atoms: _270  and  _271
REMARK  107  A    between atoms: _273  and  _275
REMARK  108  A    between atoms: _275  and  _276
REMARK  109  A    between atoms: _278  and  _280
REMARK  110  A    between atoms: _280  and  _281
REMARK  111  A    between atoms: _280  and  _283
REMARK  112  A    between atoms: _283  and  _284
REMARK  113  A    between atoms: _287  and  _289
REMARK  114  A    between atoms: _289  and  _290
REMARK  115  A    between atoms: _289  and  _292
REMARK  116  A    between atoms: _292  and  _293
REMARK  117  A    between atoms: _297  and  _298
REMARK  118  A    between atoms: _303  and  _305
REMARK  119  A    between atoms: _305  and  _306
REMARK  120  A    between atoms: _305  and  _308
REMARK  121  A    between atoms: _308  and  _309
REMARK  122  A    between atoms: _309  and  _310
REMARK  123  A    between atoms: _315  and  _317
REMARK  124  A    between atoms: _317  and  _318
REMARK  125  A    between atoms: _317  and  _320
REMARK  126  A    between atoms: _320  and  _321
REMARK  127  A    between atoms: _321  and  _322
REMARK  128  A    between atoms: _327  and  _329
REMARK  129  A    between atoms: _329  and  _330
REMARK  130  A    between atoms: _329  and  _332
REMARK  131  A    between atoms: _332  and  _333
REMARK  132  A    between atoms: _336  and  _338
REMARK  133  A    between atoms: _338  and  _339
REMARK  134  A    between atoms: _338  and  _341
REMARK  135  A    between atoms: _341  and  _342
REMARK  136  A    between atoms: _342  and  _343
REMARK  137  A    between atoms: _345  and  _347
REMARK  138  A    between atoms: _347  and  _348
REMARK  139  A    between atoms: _347  and  _350
REMARK  140  A    between atoms: _353  and  _355
REMARK  141  A    between atoms: _355  and  _356
REMARK  142  A    between atoms: _355  and  _358
REMARK  143  A    between atoms: _361  and  _363
REMARK  144  A    between atoms: _363  and  _364
REMARK  145  A    between atoms: _363  and  _366
REMARK  146  A    between atoms: _366  and  _367
REMARK  147  A    between atoms: _370  and  _372
REMARK  148  A    between atoms: _372  and  _373
REMARK  149  A    between atoms: _372  and  _375
REMARK  150  A    between atoms: _375  and  _376
REMARK  151  A    between atoms: _378  and  _380
REMARK  152  A    between atoms: _380  and  _381
REMARK  153  A    between atoms: _380  and  _383
REMARK  154  A    between atoms: _383  and  _384
REMARK  155  A    between atoms: _384  and  _494
REMARK  156  A    between atoms: _385  and  _387
REMARK  157  A    between atoms: _387  and  _388
REMARK  158  A    between atoms: _387  and  _390
REMARK  159  A    between atoms: _390  and  _391
REMARK  160  A    between atoms: _391  and  _392
REMARK  161  A    between atoms: _397  and  _399
REMARK  162  A    between atoms: _399  and  _400
REMARK  163  A    between atoms: _402  and  _404
REMARK  164  A    between atoms: _404  and  _405
REMARK  165  A    between atoms: _404  and  _407
REMARK  166  A    between atoms: _407  and  _408
REMARK  167  A    between atoms: _411  and  _413
REMARK  168  A    between atoms: _413  and  _414
REMARK  169  A    between atoms: _413  and  _416
REMARK  170  A    between atoms: _416  and  _417
REMARK  171  A    between atoms: _419  and  _421
REMARK  172  A    between atoms: _421  and  _422
REMARK  173  A    between atoms: _424  and  _426
REMARK  174  A    between atoms: _426  and  _427
REMARK  175  A    between atoms: _429  and  _431
REMARK  176  A    between atoms: _431  and  _432
REMARK  177  A    between atoms: _431  and  _434
REMARK  178  A    between atoms: _437  and  _439
REMARK  179  A    between atoms: _439  and  _440
REMARK  180  A    between atoms: _439  and  _442
REMARK  181  A    between atoms: _445  and  _447
REMARK  182  A    between atoms: _447  and  _448
REMARK  183  A    between atoms: _447  and  _450
REMARK  184  A    between atoms: _450  and  _451
REMARK  185  A    between atoms: _453  and  _455
REMARK  186  A    between atoms: _455  and  _456
REMARK  187  A    between atoms: _455  and  _458
REMARK  188  A    between atoms: _458  and  _459
REMARK  189  A    between atoms: _469  and  _471
REMARK  190  A    between atoms: _471  and  _472
REMARK  191  A    between atoms: _474  and  _476
REMARK  192  A    between atoms: _476  and  _477
REMARK  193  A    between atoms: _476  and  _479
REMARK  194  A    between atoms: _479  and  _480
REMARK  195  A    between atoms: _483  and  _485
REMARK  196  A    between atoms: _485  and  _486
REMARK  197  A    between atoms: _488  and  _490
REMARK  198  A    between atoms: _490  and  _491
REMARK  199  A    between atoms: _490  and  _493
REMARK  200  A    between atoms: _493  and  _494
REMARK  201  A    between atoms: _495  and  _497
REMARK  202  A    between atoms: _497  and  _498
REMARK  203  A    between atoms: _501  and  _503
REMARK  204  A    between atoms: _503  and  _504
REMARK  205  A    between atoms: _503  and  _506
REMARK  206  A    between atoms: _506  and  _507
REMARK  207  A    between atoms: _507  and  _508
REMARK  208  A    between atoms: _513  and  _515
REMARK  209  A    between atoms: _515  and  _516
REMARK  210  A    between atoms: _515  and  _518
REMARK  211  A    between atoms: _518  and  _519
REMARK  212  A    between atoms: _519  and  _520
REMARK  213  A    between atoms: _520  and  _521
REMARK  214  A    between atoms: _521  and  _522
REMARK  215  A    between atoms: _527  and  _528
REMARK  216  A    between atoms: _533  and  _535
REMARK  217  A    between atoms: _535  and  _536
REMARK  218  A    between atoms: _538  and  _540
REMARK  219  A    between atoms: _540  and  _541
REMARK  220  A    between atoms: _540  and  _543
REMARK  221  A    between atoms: _546  and  _548
REMARK  222  A    between atoms: _548  and  _549
REMARK  223  A    between atoms: _548  and  _551
REMARK  224  A    between atoms: _551  and  _552
REMARK  225  A    between atoms: _557  and  _558
REMARK                            x       y       z     vdW  Elec       q    Type
REMARK                         _______ _______ _______ _____ _____    ______ ____
ROOT
ATOM      1  CA  GLN A   3       6.677  55.691  36.600  0.00  0.00    +0.149 C 
ENDROOT
BRANCH   1   4
ATOM      2  C   PRO A   2       8.895  55.406  37.526  0.00  0.00    +0.241 C 
ATOM      3  O   PRO A   2       9.159  56.612  37.319  0.00  0.00    -0.273 OA
ATOM      4  N   GLN A   3       7.748  54.876  37.158  0.00  0.00    -0.297 N 
ATOM      5  H   GLN A   3       7.603  53.852  37.268  0.00  0.00    +0.150 HD
BRANCH   2  11
ATOM      6  C   LEU A   1      11.578  54.639  36.376  0.00  0.00    +0.241 C 
ATOM      7  N   PRO A   2      11.297  54.700  37.697  0.00  0.00    -0.272 N 
ATOM      8  CD  PRO A   2      12.273  55.114  38.744  0.00  0.00    +0.094 C 
ATOM      9  CG  PRO A   2      11.522  54.870  40.032  0.00  0.00    +0.024 C 
ATOM     10  CB  PRO A   2      10.053  54.912  39.690  0.00  0.00    +0.031 C 
ATOM     11  CA  PRO A   2       9.936  54.494  38.230  0.00  0.00    +0.152 C 
ATOM     12  O   LEU A   1      10.710  54.558  35.491  0.00  0.00    -0.273 OA
BRANCH   6  13
ATOM     13  CA  LEU A   1      13.079  54.570  36.015  0.00  0.00    +0.145 C 
BRANCH  13  14
ATOM     14  N   LEU A   1      13.641  53.282  36.525  0.00  0.00    -0.238 NA
ATOM     15  H   LEU A   1      13.122  52.399  36.345  0.00  0.00    +0.142 HD
ENDBRANCH  13  14
BRANCH  13  16
ATOM     16  CB  LEU A   1      13.307  54.750  34.493  0.00  0.00    +0.026 C 
BRANCH  16  17
ATOM     17  CG  LEU A   1      14.757  54.878  34.069  0.00  0.00    +0.002 C 
ATOM     18  CD2 LEU A   1      15.306  56.273  34.353  0.00  0.00    +0.000 C 
ATOM     19  CD1 LEU A   1      14.943  54.515  32.601  0.00  0.00    +0.000 C 
ENDBRANCH  16  17
ENDBRANCH  13  16
ENDBRANCH   6  13
ENDBRANCH   2  11
ENDBRANCH   1   4
BRANCH   1  20
ATOM     20  C   GLN A   3       6.998  56.243  35.228  0.00  0.00    +0.241 C 
ATOM     21  O   GLN A   3       6.350  57.172  34.743  0.00  0.00    -0.273 OA
ATOM     22  N   GLN A   4       8.006  55.654  34.612  0.00  0.00    -0.297 N 
ATOM     23  H   GLN A   4       8.535  54.871  35.046  0.00  0.00    +0.150 HD
BRANCH  22  24
ATOM     24  CA  GLN A   4       8.327  56.158  33.311  0.00  0.00    +0.149 C 
BRANCH  24  25
ATOM     25  C   GLN A   4       8.408  55.143  32.193  0.00  0.00    +0.241 C 
ATOM     26  N   ILE A   5       8.332  53.830  32.467  0.00  0.00    -0.298 N 
ATOM     27  H   ILE A   5       8.080  53.522  33.428  0.00  0.00    +0.150 HD
ATOM     28  O   GLN A   4       8.590  55.567  31.081  0.00  0.00    -0.273 OA
BRANCH  26  29
ATOM     29  CA  ILE A   5       8.595  52.836  31.448  0.00  0.00    +0.137 C 
BRANCH  29  30
ATOM     30  C   ILE A   5       7.299  52.143  31.098  0.00  0.00    +0.227 C 
ATOM     31  O   ILE A   5       6.689  51.541  31.987  0.00  0.00    -0.286 OA
ENDBRANCH  29  30
BRANCH  29  32
ATOM     32  CB  ILE A   5       9.684  51.833  31.952  0.00  0.00    +0.026 C 
ATOM     33  CG2 ILE A   5       9.741  50.587  31.089  0.00  0.00    +0.002 C 
BRANCH  32  34
ATOM     34  CG1 ILE A   5      11.002  52.578  31.878  0.00  0.00    +0.002 C 
ATOM     35  CD1 ILE A   5      11.892  52.204  33.050  0.00  0.00    +0.000 C 
ENDBRANCH  32  34
ENDBRANCH  29  32
ENDBRANCH  26  29
ENDBRANCH  24  25
BRANCH  24  36
ATOM     36  CB  GLN A   4       9.604  57.009  33.345  0.00  0.00    +0.039 C 
BRANCH  36  37
ATOM     37  CG  GLN A   4       9.518  58.150  34.360  0.00  0.00    +0.087 C 
BRANCH  37  38
ATOM     38  CD  GLN A   4      10.892  58.719  34.645  0.00  0.00    +0.219 C 
ATOM     39  NE2 GLN A   4      11.420  58.492  35.851  0.00  0.00    -0.329 N 
ATOM     40 HE21 GLN A   4      10.909  57.905  36.540  0.00  0.00    +0.145 HD
ATOM     41 HE22 GLN A   4      12.343  58.902  36.100  0.00  0.00    +0.145 HD
ATOM     42  OE1 GLN A   4      11.439  59.394  33.799  0.00  0.00    -0.275 OA
ENDBRANCH  37  38
ENDBRANCH  36  37
ENDBRANCH  24  36
ENDBRANCH  22  24
ENDBRANCH   1  20
BRANCH   1  43
ATOM     43  CB  GLN A   3       6.273  56.878  37.492  0.00  0.00    +0.039 C 
BRANCH  43  44
ATOM     44  CG  GLN A   3       5.982  56.603  38.923  0.00  0.00    +0.087 C 
BRANCH  44  45
ATOM     45  CD  GLN A   3       4.932  55.628  39.086  0.00  0.00    +0.219 C 
ATOM     46  NE2 GLN A   3       3.799  56.060  39.522  0.00  0.00    -0.329 N 
ATOM     47 HE21 GLN A   3       3.676  57.070  39.738  0.00  0.00    +0.145 HD
ATOM     48 HE22 GLN A   3       3.008  55.399  39.658  0.00  0.00    +0.145 HD
ATOM     49  OE1 GLN A   3       5.120  54.497  38.828  0.00  0.00    -0.275 OA
ENDBRANCH  44  45
ENDBRANCH  43  44
ENDBRANCH   1  43
TORSDOF 19
REMARK  Name = ../refined-set-2016/4jz1/4jz1_pocket.pdb
REMARK  225 active torsions:
REMARK  status: ('A' for Active; 'I' for Inactive)
REMARK    1  A    between atoms: _1  and  _5
REMARK    2  A    between atoms: _5  and  _6
REMARK    3  A    between atoms: _5  and  _8
REMARK    4  A    between atoms: _11  and  _13
REMARK    5  A    between atoms: _13  and  _14
REMARK    6  A    between atoms: _13  and  _16
REMARK    7  A    between atoms: _19  and  _21
REMARK    8  A    between atoms: _21  and  _22
REMARK    9  A    between atoms: _21  and  _24
REMARK   10  A    between atoms: _24  and  _25
REMARK   11  A    between atoms: _25  and  _26
REMARK   12  A    between atoms: _31  and  _33
REMARK   13  A    between atoms: _33  and  _34
REMARK   14  A    between atoms: _33  and  _36
REMARK   15  A    between atoms: _36  and  _37
REMARK   16  A    between atoms: _42  and  _44
REMARK   17  A    between atoms: _44  and  _45
REMARK   18  A    between atoms: _44  and  _47
REMARK   19  A    between atoms: _47  and  _48
REMARK   20  A    between atoms: _51  and  _53
REMARK   21  A    between atoms: _53  and  _54
REMARK   22  A    between atoms: _53  and  _56
REMARK   23  A    between atoms: _56  and  _57
REMARK   24  A    between atoms: _57  and  _92
REMARK   25  A    between atoms: _58  and  _60
REMARK   26  A    between atoms: _60  and  _61
REMARK   27  A    between atoms: _63  and  _65
REMARK   28  A    between atoms: _65  and  _66
REMARK   29  A    between atoms: _69  and  _71
REMARK   30  A    between atoms: _71  and  _72
REMARK   31  A    between atoms: _75  and  _77
REMARK   32  A    between atoms: _77  and  _78
REMARK   33  A    between atoms: _77  and  _80
REMARK   34  A    between atoms: _80  and  _81
REMARK   35  A    between atoms: _86  and  _88
REMARK   36  A    between atoms: _88  and  _89
REMARK   37  A    between atoms: _88  and  _91
REMARK   38  A    between atoms: _91  and  _92
REMARK   39  A    between atoms: _93  and  _95
REMARK   40  A    between atoms: _95  and  _96
REMARK   41  A    between atoms: _95  and  _98
REMARK   42  A    between atoms: _98  and  _99
REMARK   43  A    between atoms: _104  and  _105
REMARK   44  A    between atoms: _107  and  _109
REMARK   45  A    between atoms: _109  and  _110
REMARK   46  A    between atoms: _109  and  _112
REMARK   47  A    between atoms: _112  and  _113
REMARK   48  A    between atoms: _116  and  _118
REMARK   49  A    between atoms: _118  and  _119
REMARK   50  A    between atoms: _118  and  _121
REMARK   51  A    between atoms: _121  and  _122
REMARK   52  A    between atoms: _125  and  _127
REMARK   53  A    between atoms: _127  and  _128
REMARK   54  A    between atoms: _127  and  _130
REMARK   55  A    between atoms: _130  and  _131
REMARK   56  A    between atoms: _134  and  _136
REMARK   57  A    between atoms: _136  and  _137
REMARK   58  A    between atoms: _136  and  _139
REMARK   59  A    between atoms: _139  and  _140
REMARK   60  A    between atoms: _145  and  _146
REMARK   61  A    between atoms: _148  and  _150
REMARK   62  A    between atoms: _150  and  _151
REMARK   63  A    between atoms: _150  and  _153
REMARK   64  A    between atoms: _153  and  _154
REMARK   65  A    between atoms: _164  and  _166
REMARK   66  A    between atoms: _166  and  _167
REMARK   67  A    between atoms: _166  and  _169
REMARK   68  A    between atoms: _169  and  _170
REMARK   69  A    between atoms: _175  and  _177
REMARK   70  A    between atoms: _177  and  _178
REMARK   71  A    between atoms: _177  and  _180
REMARK   72  A    between atoms: _180  and  _181
REMARK   73  A    between atoms: _184  and  _186
REMARK   74  A    between atoms: _186  and  _187
REMARK   75  A    between atoms: _186  and  _189
REMARK   76  A    between atoms: _189  and  _190
REMARK   77  A    between atoms: _196  and  _198
REMARK   78  A    between atoms: _198  and  _199
REMARK   79  A    between atoms: _198  and  _201
REMARK   80  A    between atoms: _201  and  _202
REMARK   81  A    between atoms: _205  and  _207
REMARK   82  A    between atoms: _207  and  _208
REMARK   83  A    between atoms: _207  and  _210
REMARK   84  A    between atoms: _210  and  _211
REMARK   85  A    between atoms: _217  and  _219
REMARK   86  A    between atoms: _219  and  _220
REMARK   87  A    between atoms: _219  and  _222
REMARK   88  A    between atoms: _222  and  _223
REMARK   89  A    between atoms: _226  and  _228
REMARK   90  A    between atoms: _228  and  _229
REMARK   91  A    between atoms: _228  and  _231
REMARK   92  A    between atoms: _231  and  _232
REMARK   93  A    between atoms: _235  and  _237
REMARK   94  A    between atoms: _237  and  _238
REMARK   95  A    between atoms: _237  and  _240
REMARK   96  A    between atoms: _243  and  _245
REMARK   97  A    between atoms: _245  and  _246
REMARK   98  A    between atoms: _248  and  _250
REMARK   99  A    between atoms: _250  and  _251
REMARK  100  A    between atoms: _250  and  _253
REMARK  101  A    between atoms: _253  and  _254
REMARK  102  A    between atoms: _259  and  _261
REMARK  103  A    between atoms: _261  and  _262
REMARK  104  A    between atoms: _261  and  _264
REMARK  105  A    between atoms: _264  and  _265
REMARK  106  A    between atoms: _270  and  _271
REMARK  107  A    between atoms: _273  and  _275
REMARK  108  A    between atoms: _275  and  _276
REMARK  109  A    between atoms: _278  and  _280
REMARK  110  A    between atoms: _280  and  _281
REMARK  111  A    between atoms: _280  and  _283
REMARK  112  A    between atoms: _283  and  _284
REMARK  113  A    between atoms: _287  and  _289
REMARK  114  A    between atoms: _289  and  _290
REMARK  115  A    between atoms: _289  and  _292
REMARK  116  A    between atoms: _292  and  _293
REMARK  117  A    between atoms: _297  and  _298
REMARK  118  A    between atoms: _303  and  _305
REMARK  119  A    between atoms: _305  and  _306
REMARK  120  A    between atoms: _305  and  _308
REMARK  121  A    between atoms: _308  and  _309
REMARK  122  A    between atoms: _309  and  _310
REMARK  123  A    between atoms: _315  and  _317
REMARK  124  A    between atoms: _317  and  _318
REMARK  125  A    between atoms: _317  and  _320
REMARK  126  A    between atoms: _320  and  _321
REMARK  127  A    between atoms: _321  and  _322
REMARK  128  A    between atoms: _327  and  _329
REMARK  129  A    between atoms: _329  and  _330
REMARK  130  A    between atoms: _329  and  _332
REMARK  131  A    between atoms: _332  and  _333
REMARK  132  A    between atoms: _336  and  _338
REMARK  133  A    between atoms: _338  and  _339
REMARK  134  A    between atoms: _338  and  _341
REMARK  135  A    between atoms: _341  and  _342
REMARK  136  A    between atoms: _342  and  _343
REMARK  137  A    between atoms: _345  and  _347
REMARK  138  A    between atoms: _347  and  _348
REMARK  139  A    between atoms: _347  and  _350
REMARK  140  A    between atoms: _353  and  _355
REMARK  141  A    between atoms: _355  and  _356
REMARK  142  A    between atoms: _355  and  _358
REMARK  143  A    between atoms: _361  and  _363
REMARK  144  A    between atoms: _363  and  _364
REMARK  145  A    between atoms: _363  and  _366
REMARK  146  A    between atoms: _366  and  _367
REMARK  147  A    between atoms: _370  and  _372
REMARK  148  A    between atoms: _372  and  _373
REMARK  149  A    between atoms: _372  and  _375
REMARK  150  A    between atoms: _375  and  _376
REMARK  151  A    between atoms: _378  and  _380
REMARK  152  A    between atoms: _380  and  _381
REMARK  153  A    between atoms: _380  and  _383
REMARK  154  A    between atoms: _383  and  _384
REMARK  155  A    between atoms: _384  and  _494
REMARK  156  A    between atoms: _385  and  _387
REMARK  157  A    between atoms: _387  and  _388
REMARK  158  A    between atoms: _387  and  _390
REMARK  159  A    between atoms: _390  and  _391
REMARK  160  A    between atoms: _391  and  _392
REMARK  161  A    between atoms: _397  and  _399
REMARK  162  A    between atoms: _399  and  _400
REMARK  163  A    between atoms: _402  and  _404
REMARK  164  A    between atoms: _404  and  _405
REMARK  165  A    between atoms: _404  and  _407
REMARK  166  A    between atoms: _407  and  _408
REMARK  167  A    between atoms: _411  and  _413
REMARK  168  A    between atoms: _413  and  _414
REMARK  169  A    between atoms: _413  and  _416
REMARK  170  A    between atoms: _416  and  _417
REMARK  171  A    between atoms: _419  and  _421
REMARK  172  A    between atoms: _421  and  _422
REMARK  173  A    between atoms: _424  and  _426
REMARK  174  A    between atoms: _426  and  _427
REMARK  175  A    between atoms: _429  and  _431
REMARK  176  A    between atoms: _431  and  _432
REMARK  177  A    between atoms: _431  and  _434
REMARK  178  A    between atoms: _437  and  _439
REMARK  179  A    between atoms: _439  and  _440
REMARK  180  A    between atoms: _439  and  _442
REMARK  181  A    between atoms: _445  and  _447
REMARK  182  A    between atoms: _447  and  _448
REMARK  183  A    between atoms: _447  and  _450
REMARK  184  A    between atoms: _450  and  _451
REMARK  185  A    between atoms: _453  and  _455
REMARK  186  A    between atoms: _455  and  _456
REMARK  187  A    between atoms: _455  and  _458
REMARK  188  A    between atoms: _458  and  _459
REMARK  189  A    between atoms: _469  and  _471
REMARK  190  A    between atoms: _471  and  _472
REMARK  191  A    between atoms: _474  and  _476
REMARK  192  A    between atoms: _476  and  _477
REMARK  193  A    between atoms: _476  and  _479
REMARK  194  A    between atoms: _479  and  _480
REMARK  195  A    between atoms: _483  and  _485
REMARK  196  A    between atoms: _485  and  _486
REMARK  197  A    between atoms: _488  and  _490
REMARK  198  A    between atoms: _490  and  _491
REMARK  199  A    between atoms: _490  and  _493
REMARK  200  A    between atoms: _493  and  _494
REMARK  201  A    between atoms: _495  and  _497
REMARK  202  A    between atoms: _497  and  _498
REMARK  203  A    between atoms: _501  and  _503
REMARK  204  A    between atoms: _503  and  _504
REMARK  205  A    between atoms: _503  and  _506
REMARK  206  A    between atoms: _506  and  _507
REMARK  207  A    between atoms: _507  and  _508
REMARK  208  A    between atoms: _513  and  _515
REMARK  209  A    between atoms: _515  and  _516
REMARK  210  A    between atoms: _515  and  _518
REMARK  211  A    between atoms: _518  and  _519
REMARK  212  A    between atoms: _519  and  _520
REMARK  213  A    between atoms: _520  and  _521
REMARK  214  A    between atoms: _521  and  _522
REMARK  215  A    between atoms: _527  and  _528
REMARK  216  A    between atoms: _533  and  _535
REMARK  217  A    between atoms: _535  and  _536
REMARK  218  A    between atoms: _538  and  _540
REMARK  219  A    between atoms: _540  and  _541
REMARK  220  A    between atoms: _540  and  _543
REMARK  221  A    between atoms: _546  and  _548
REMARK  222  A    between atoms: _548  and  _549
REMARK  223  A    between atoms: _548  and  _551
REMARK  224  A    between atoms: _551  and  _552
REMARK  225  A    between atoms: _557  and  _558
REMARK                            x       y       z     vdW  Elec       q    Type
REMARK                         _______ _______ _______ _____ _____    ______ ____
ROOT
ATOM      1  CA  MET A   1       9.685  50.842  25.819  0.00  0.00    +0.134 C 
ENDROOT
BRANCH   1   2
ATOM      2  N   MET A   1       8.279  50.452  25.658  0.00  0.00    -0.239 NA
ATOM      3  H   MET A   1       7.668  50.293  26.485  0.00  0.00    +0.142 HD
ENDBRANCH   1   2
BRANCH   1   4
ATOM      4  C   MET A   1      10.584  49.655  26.223  0.00  0.00    +0.224 C 
ATOM      5  O   MET A   1      10.115  48.688  26.789  0.00  0.00    -0.287 OA
ENDBRANCH   1   4
BRANCH   1   6
ATOM      6  CB  MET A   1       9.773  51.935  26.881  0.00  0.00    +0.037 C 
BRANCH   6   7
ATOM      7  CG  MET A   1       9.021  53.221  26.464  0.00  0.00    +0.059 C 
BRANCH   7   8
ATOM      8  SD  MET A   1       9.045  54.290  27.902  0.00  0.00    -0.139 S 
ATOM      9  CE  MET A   1       7.898  55.647  27.466  0.00  0.00    +0.069 C 
ENDBRANCH   7   8
ENDBRANCH   6   7
ENDBRANCH   1   6
TORSDOF 5
REMARK  Name = ../refined-set-2016/4jz1/4jz1_pocket.pdb
REMARK  225 active torsions:
REMARK  status: ('A' for Active; 'I' for Inactive)
REMARK    1  A    between atoms: _1  and  _5
REMARK    2  A    between atoms: _5  and  _6
REMARK    3  A    between atoms: _5  and  _8
REMARK    4  A    between atoms: _11  and  _13
REMARK    5  A    between atoms: _13  and  _14
REMARK    6  A    between atoms: _13  and  _16
REMARK    7  A    between atoms: _19  and  _21
REMARK    8  A    between atoms: _21  and  _22
REMARK    9  A    between atoms: _21  and  _24
REMARK   10  A    between atoms: _24  and  _25
REMARK   11  A    between atoms: _25  and  _26
REMARK   12  A    between atoms: _31  and  _33
REMARK   13  A    between atoms: _33  and  _34
REMARK   14  A    between atoms: _33  and  _36
REMARK   15  A    between atoms: _36  and  _37
REMARK   16  A    between atoms: _42  and  _44
REMARK   17  A    between atoms: _44  and  _45
REMARK   18  A    between atoms: _44  and  _47
REMARK   19  A    between atoms: _47  and  _48
REMARK   20  A    between atoms: _51  and  _53
REMARK   21  A    between atoms: _53  and  _54
REMARK   22  A    between atoms: _53  and  _56
REMARK   23  A    between atoms: _56  and  _57
REMARK   24  A    between atoms: _57  and  _92
REMARK   25  A    between atoms: _58  and  _60
REMARK   26  A    between atoms: _60  and  _61
REMARK   27  A    between atoms: _63  and  _65
REMARK   28  A    between atoms: _65  and  _66
REMARK   29  A    between atoms: _69  and  _71
REMARK   30  A    between atoms: _71  and  _72
REMARK   31  A    between atoms: _75  and  _77
REMARK   32  A    between atoms: _77  and  _78
REMARK   33  A    between atoms: _77  and  _80
REMARK   34  A    between atoms: _80  and  _81
REMARK   35  A    between atoms: _86  and  _88
REMARK   36  A    between atoms: _88  and  _89
REMARK   37  A    between atoms: _88  and  _91
REMARK   38  A    between atoms: _91  and  _92
REMARK   39  A    between atoms: _93  and  _95
REMARK   40  A    between atoms: _95  and  _96
REMARK   41  A    between atoms: _95  and  _98
REMARK   42  A    between atoms: _98  and  _99
REMARK   43  A    between atoms: _104  and  _105
REMARK   44  A    between atoms: _107  and  _109
REMARK   45  A    between atoms: _109  and  _110
REMARK   46  A    between atoms: _109  and  _112
REMARK   47  A    between atoms: _112  and  _113
REMARK   48  A    between atoms: _116  and  _118
REMARK   49  A    between atoms: _118  and  _119
REMARK   50  A    between atoms: _118  and  _121
REMARK   51  A    between atoms: _121  and  _122
REMARK   52  A    between atoms: _125  and  _127
REMARK   53  A    between atoms: _127  and  _128
REMARK   54  A    between atoms: _127  and  _130
REMARK   55  A    between atoms: _130  and  _131
REMARK   56  A    between atoms: _134  and  _136
REMARK   57  A    between atoms: _136  and  _137
REMARK   58  A    between atoms: _136  and  _139
REMARK   59  A    between atoms: _139  and  _140
REMARK   60  A    between atoms: _145  and  _146
REMARK   61  A    between atoms: _148  and  _150
REMARK   62  A    between atoms: _150  and  _151
REMARK   63  A    between atoms: _150  and  _153
REMARK   64  A    between atoms: _153  and  _154
REMARK   65  A    between atoms: _164  and  _166
REMARK   66  A    between atoms: _166  and  _167
REMARK   67  A    between atoms: _166  and  _169
REMARK   68  A    between atoms: _169  and  _170
REMARK   69  A    between atoms: _175  and  _177
REMARK   70  A    between atoms: _177  and  _178
REMARK   71  A    between atoms: _177  and  _180
REMARK   72  A    between atoms: _180  and  _181
REMARK   73  A    between atoms: _184  and  _186
REMARK   74  A    between atoms: _186  and  _187
REMARK   75  A    between atoms: _186  and  _189
REMARK   76  A    between atoms: _189  and  _190
REMARK   77  A    between atoms: _196  and  _198
REMARK   78  A    between atoms: _198  and  _199
REMARK   79  A    between atoms: _198  and  _201
REMARK   80  A    between atoms: _201  and  _202
REMARK   81  A    between atoms: _205  and  _207
REMARK   82  A    between atoms: _207  and  _208
REMARK   83  A    between atoms: _207  and  _210
REMARK   84  A    between atoms: _210  and  _211
REMARK   85  A    between atoms: _217  and  _219
REMARK   86  A    between atoms: _219  and  _220
REMARK   87  A    between atoms: _219  and  _222
REMARK   88  A    between atoms: _222  and  _223
REMARK   89  A    between atoms: _226  and  _228
REMARK   90  A    between atoms: _228  and  _229
REMARK   91  A    between atoms: _228  and  _231
REMARK   92  A    between atoms: _231  and  _232
REMARK   93  A    between atoms: _235  and  _237
REMARK   94  A    between atoms: _237  and  _238
REMARK   95  A    between atoms: _237  and  _240
REMARK   96  A    between atoms: _243  and  _245
REMARK   97  A    between atoms: _245  and  _246
REMARK   98  A    between atoms: _248  and  _250
REMARK   99  A    between atoms: _250  and  _251
REMARK  100  A    between atoms: _250  and  _253
REMARK  101  A    between atoms: _253  and  _254
REMARK  102  A    between atoms: _259  and  _261
REMARK  103  A    between atoms: _261  and  _262
REMARK  104  A    between atoms: _261  and  _264
REMARK  105  A    between atoms: _264  and  _265
REMARK  106  A    between atoms: _270  and  _271
REMARK  107  A    between atoms: _273  and  _275
REMARK  108  A    between atoms: _275  and  _276
REMARK  109  A    between atoms: _278  and  _280
REMARK  110  A    between atoms: _280  and  _281
REMARK  111  A    between atoms: _280  and  _283
REMARK  112  A    between atoms: _283  and  _284
REMARK  113  A    between atoms: _287  and  _289
REMARK  114  A    between atoms: _289  and  _290
REMARK  115  A    between atoms: _289  and  _292
REMARK  116  A    between atoms: _292  and  _293
REMARK  117  A    between atoms: _297  and  _298
REMARK  118  A    between atoms: _303  and  _305
REMARK  119  A    between atoms: _305  and  _306
REMARK  120  A    between atoms: _305  and  _308
REMARK  121  A    between atoms: _308  and  _309
REMARK  122  A    between atoms: _309  and  _310
REMARK  123  A    between atoms: _315  and  _317
REMARK  124  A    between atoms: _317  and  _318
REMARK  125  A    between atoms: _317  and  _320
REMARK  126  A    between atoms: _320  and  _321
REMARK  127  A    between atoms: _321  and  _322
REMARK  128  A    between atoms: _327  and  _329
REMARK  129  A    between atoms: _329  and  _330
REMARK  130  A    between atoms: _329  and  _332
REMARK  131  A    between atoms: _332  and  _333
REMARK  132  A    between atoms: _336  and  _338
REMARK  133  A    between atoms: _338  and  _339
REMARK  134  A    between atoms: _338  and  _341
REMARK  135  A    between atoms: _341  and  _342
REMARK  136  A    between atoms: _342  and  _343
REMARK  137  A    between atoms: _345  and  _347
REMARK  138  A    between atoms: _347  and  _348
REMARK  139  A    between atoms: _347  and  _350
REMARK  140  A    between atoms: _353  and  _355
REMARK  141  A    between atoms: _355  and  _356
REMARK  142  A    between atoms: _355  and  _358
REMARK  143  A    between atoms: _361  and  _363
REMARK  144  A    between atoms: _363  and  _364
REMARK  145  A    between atoms: _363  and  _366
REMARK  146  A    between atoms: _366  and  _367
REMARK  147  A    between atoms: _370  and  _372
REMARK  148  A    between atoms: _372  and  _373
REMARK  149  A    between atoms: _372  and  _375
REMARK  150  A    between atoms: _375  and  _376
REMARK  151  A    between atoms: _378  and  _380
REMARK  152  A    between atoms: _380  and  _381
REMARK  153  A    between atoms: _380  and  _383
REMARK  154  A    between atoms: _383  and  _384
REMARK  155  A    between atoms: _384  and  _494
REMARK  156  A    between atoms: _385  and  _387
REMARK  157  A    between atoms: _387  and  _388
REMARK  158  A    between atoms: _387  and  _390
REMARK  159  A    between atoms: _390  and  _391
REMARK  160  A    between atoms: _391  and  _392
REMARK  161  A    between atoms: _397  and  _399
REMARK  162  A    between atoms: _399  and  _400
REMARK  163  A    between atoms: _402  and  _404
REMARK  164  A    between atoms: _404  and  _405
REMARK  165  A    between atoms: _404  and  _407
REMARK  166  A    between atoms: _407  and  _408
REMARK  167  A    between atoms: _411  and  _413
REMARK  168  A    between atoms: _413  and  _414
REMARK  169  A    between atoms: _413  and  _416
REMARK  170  A    between atoms: _416  and  _417
REMARK  171  A    between atoms: _419  and  _421
REMARK  172  A    between atoms: _421  and  _422
REMARK  173  A    between atoms: _424  and  _426
REMARK  174  A    between atoms: _426  and  _427
REMARK  175  A    between atoms: _429  and  _431
REMARK  176  A    between atoms: _431  and  _432
REMARK  177  A    between atoms: _431  and  _434
REMARK  178  A    between atoms: _437  and  _439
REMARK  179  A    between atoms: _439  and  _440
REMARK  180  A    between atoms: _439  and  _442
REMARK  181  A    between atoms: _445  and  _447
REMARK  182  A    between atoms: _447  and  _448
REMARK  183  A    between atoms: _447  and  _450
REMARK  184  A    between atoms: _450  and  _451
REMARK  185  A    between atoms: _453  and  _455
REMARK  186  A    between atoms: _455  and  _456
REMARK  187  A    between atoms: _455  and  _458
REMARK  188  A    between atoms: _458  and  _459
REMARK  189  A    between atoms: _469  and  _471
REMARK  190  A    between atoms: _471  and  _472
REMARK  191  A    between atoms: _474  and  _476
REMARK  192  A    between atoms: _476  and  _477
REMARK  193  A    between atoms: _476  and  _479
REMARK  194  A    between atoms: _479  and  _480
REMARK  195  A    between atoms: _483  and  _485
REMARK  196  A    between atoms: _485  and  _486
REMARK  197  A    between atoms: _488  and  _490
REMARK  198  A    between atoms: _490  and  _491
REMARK  199  A    between atoms: _490  and  _493
REMARK  200  A    between atoms: _493  and  _494
REMARK  201  A    between atoms: _495  and  _497
REMARK  202  A    between atoms: _497  and  _498
REMARK  203  A    between atoms: _501  and  _503
REMARK  204  A    between atoms: _503  and  _504
REMARK  205  A    between atoms: _503  and  _506
REMARK  206  A    between atoms: _506  and  _507
REMARK  207  A    between atoms: _507  and  _508
REMARK  208  A    between atoms: _513  and  _515
REMARK  209  A    between atoms: _515  and  _516
REMARK  210  A    between atoms: _515  and  _518
REMARK  211  A    between atoms: _518  and  _519
REMARK  212  A    between atoms: _519  and  _520
REMARK  213  A    between atoms: _520  and  _521
REMARK  214  A    between atoms: _521  and  _522
REMARK  215  A    between atoms: _527  and  _528
REMARK  216  A    between atoms: _533  and  _535
REMARK  217  A    between atoms: _535  and  _536
REMARK  218  A    between atoms: _538  and  _540
REMARK  219  A    between atoms: _540  and  _541
REMARK  220  A    between atoms: _540  and  _543
REMARK  221  A    between atoms: _546  and  _548
REMARK  222  A    between atoms: _548  and  _549
REMARK  223  A    between atoms: _548  and  _551
REMARK  224  A    between atoms: _551  and  _552
REMARK  225  A    between atoms: _557  and  _558
REMARK                            x       y       z     vdW  Elec       q    Type
REMARK                         _______ _______ _______ _____ _____    ______ ____
ROOT
ATOM      1  CA  VAL A   1      19.199  48.474  26.466  0.00  0.00    +0.133 C 
ENDROOT
BRANCH   1   2
ATOM      2  CB  VAL A   1      19.037  48.289  24.919  0.00  0.00    +0.023 C 
ATOM      3  CG2 VAL A   1      17.652  47.793  24.510  0.00  0.00    +0.002 C 
ATOM      4  CG1 VAL A   1      20.108  47.290  24.393  0.00  0.00    +0.002 C 
ENDBRANCH   1   2
BRANCH   1   5
ATOM      5  N   VAL A   1      18.095  49.194  27.111  0.00  0.00    -0.239 NA
ATOM      6  H   VAL A   1      18.105  50.234  27.132  0.00  0.00    +0.142 HD
ENDBRANCH   1   5
BRANCH   1   7
ATOM      7  C   VAL A   1      20.492  49.289  26.819  0.00  0.00    +0.224 C 
ATOM      8  O   VAL A   1      20.520  50.540  26.739  0.00  0.00    -0.287 OA
ENDBRANCH   1   7
TORSDOF 3
REMARK  Name = ../refined-set-2016/4jz1/4jz1_pocket.pdb
REMARK  225 active torsions:
REMARK  status: ('A' for Active; 'I' for Inactive)
REMARK    1  A    between atoms: _1  and  _5
REMARK    2  A    between atoms: _5  and  _6
REMARK    3  A    between atoms: _5  and  _8
REMARK    4  A    between atoms: _11  and  _13
REMARK    5  A    between atoms: _13  and  _14
REMARK    6  A    between atoms: _13  and  _16
REMARK    7  A    between atoms: _19  and  _21
REMARK    8  A    between atoms: _21  and  _22
REMARK    9  A    between atoms: _21  and  _24
REMARK   10  A    between atoms: _24  and  _25
REMARK   11  A    between atoms: _25  and  _26
REMARK   12  A    between atoms: _31  and  _33
REMARK   13  A    between atoms: _33  and  _34
REMARK   14  A    between atoms: _33  and  _36
REMARK   15  A    between atoms: _36  and  _37
REMARK   16  A    between atoms: _42  and  _44
REMARK   17  A    between atoms: _44  and  _45
REMARK   18  A    between atoms: _44  and  _47
REMARK   19  A    between atoms: _47  and  _48
REMARK   20  A    between atoms: _51  and  _53
REMARK   21  A    between atoms: _53  and  _54
REMARK   22  A    between atoms: _53  and  _56
REMARK   23  A    between atoms: _56  and  _57
REMARK   24  A    between atoms: _57  and  _92
REMARK   25  A    between atoms: _58  and  _60
REMARK   26  A    between atoms: _60  and  _61
REMARK   27  A    between atoms: _63  and  _65
REMARK   28  A    between atoms: _65  and  _66
REMARK   29  A    between atoms: _69  and  _71
REMARK   30  A    between atoms: _71  and  _72
REMARK   31  A    between atoms: _75  and  _77
REMARK   32  A    between atoms: _77  and  _78
REMARK   33  A    between atoms: _77  and  _80
REMARK   34  A    between atoms: _80  and  _81
REMARK   35  A    between atoms: _86  and  _88
REMARK   36  A    between atoms: _88  and  _89
REMARK   37  A    between atoms: _88  and  _91
REMARK   38  A    between atoms: _91  and  _92
REMARK   39  A    between atoms: _93  and  _95
REMARK   40  A    between atoms: _95  and  _96
REMARK   41  A    between atoms: _95  and  _98
REMARK   42  A    between atoms: _98  and  _99
REMARK   43  A    between atoms: _104  and  _105
REMARK   44  A    between atoms: _107  and  _109
REMARK   45  A    between atoms: _109  and  _110
REMARK   46  A    between atoms: _109  and  _112
REMARK   47  A    between atoms: _112  and  _113
REMARK   48  A    between atoms: _116  and  _118
REMARK   49  A    between atoms: _118  and  _119
REMARK   50  A    between atoms: _118  and  _121
REMARK   51  A    between atoms: _121  and  _122
REMARK   52  A    between atoms: _125  and  _127
REMARK   53  A    between atoms: _127  and  _128
REMARK   54  A    between atoms: _127  and  _130
REMARK   55  A    between atoms: _130  and  _131
REMARK   56  A    between atoms: _134  and  _136
REMARK   57  A    between atoms: _136  and  _137
REMARK   58  A    between atoms: _136  and  _139
REMARK   59  A    between atoms: _139  and  _140
REMARK   60  A    between atoms: _145  and  _146
REMARK   61  A    between atoms: _148  and  _150
REMARK   62  A    between atoms: _150  and  _151
REMARK   63  A    between atoms: _150  and  _153
REMARK   64  A    between atoms: _153  and  _154
REMARK   65  A    between atoms: _164  and  _166
REMARK   66  A    between atoms: _166  and  _167
REMARK   67  A    between atoms: _166  and  _169
REMARK   68  A    between atoms: _169  and  _170
REMARK   69  A    between atoms: _175  and  _177
REMARK   70  A    between atoms: _177  and  _178
REMARK   71  A    between atoms: _177  and  _180
REMARK   72  A    between atoms: _180  and  _181
REMARK   73  A    between atoms: _184  and  _186
REMARK   74  A    between atoms: _186  and  _187
REMARK   75  A    between atoms: _186  and  _189
REMARK   76  A    between atoms: _189  and  _190
REMARK   77  A    between atoms: _196  and  _198
REMARK   78  A    between atoms: _198  and  _199
REMARK   79  A    between atoms: _198  and  _201
REMARK   80  A    between atoms: _201  and  _202
REMARK   81  A    between atoms: _205  and  _207
REMARK   82  A    between atoms: _207  and  _208
REMARK   83  A    between atoms: _207  and  _210
REMARK   84  A    between atoms: _210  and  _211
REMARK   85  A    between atoms: _217  and  _219
REMARK   86  A    between atoms: _219  and  _220
REMARK   87  A    between atoms: _219  and  _222
REMARK   88  A    between atoms: _222  and  _223
REMARK   89  A    between atoms: _226  and  _228
REMARK   90  A    between atoms: _228  and  _229
REMARK   91  A    between atoms: _228  and  _231
REMARK   92  A    between atoms: _231  and  _232
REMARK   93  A    between atoms: _235  and  _237
REMARK   94  A    between atoms: _237  and  _238
REMARK   95  A    between atoms: _237  and  _240
REMARK   96  A    between atoms: _243  and  _245
REMARK   97  A    between atoms: _245  and  _246
REMARK   98  A    between atoms: _248  and  _250
REMARK   99  A    between atoms: _250  and  _251
REMARK  100  A    between atoms: _250  and  _253
REMARK  101  A    between atoms: _253  and  _254
REMARK  102  A    between atoms: _259  and  _261
REMARK  103  A    between atoms: _261  and  _262
REMARK  104  A    between atoms: _261  and  _264
REMARK  105  A    between atoms: _264  and  _265
REMARK  106  A    between atoms: _270  and  _271
REMARK  107  A    between atoms: _273  and  _275
REMARK  108  A    between atoms: _275  and  _276
REMARK  109  A    between atoms: _278  and  _280
REMARK  110  A    between atoms: _280  and  _281
REMARK  111  A    between atoms: _280  and  _283
REMARK  112  A    between atoms: _283  and  _284
REMARK  113  A    between atoms: _287  and  _289
REMARK  114  A    between atoms: _289  and  _290
REMARK  115  A    between atoms: _289  and  _292
REMARK  116  A    between atoms: _292  and  _293
REMARK  117  A    between atoms: _297  and  _298
REMARK  118  A    between atoms: _303  and  _305
REMARK  119  A    between atoms: _305  and  _306
REMARK  120  A    between atoms: _305  and  _308
REMARK  121  A    between atoms: _308  and  _309
REMARK  122  A    between atoms: _309  and  _310
REMARK  123  A    between atoms: _315  and  _317
REMARK  124  A    between atoms: _317  and  _318
REMARK  125  A    between atoms: _317  and  _320
REMARK  126  A    between atoms: _320  and  _321
REMARK  127  A    between atoms: _321  and  _322
REMARK  128  A    between atoms: _327  and  _329
REMARK  129  A    between atoms: _329  and  _330
REMARK  130  A    between atoms: _329  and  _332
REMARK  131  A    between atoms: _332  and  _333
REMARK  132  A    between atoms: _336  and  _338
REMARK  133  A    between atoms: _338  and  _339
REMARK  134  A    between atoms: _338  and  _341
REMARK  135  A    between atoms: _341  and  _342
REMARK  136  A    between atoms: _342  and  _343
REMARK  137  A    between atoms: _345  and  _347
REMARK  138  A    between atoms: _347  and  _348
REMARK  139  A    between atoms: _347  and  _350
REMARK  140  A    between atoms: _353  and  _355
REMARK  141  A    between atoms: _355  and  _356
REMARK  142  A    between atoms: _355  and  _358
REMARK  143  A    between atoms: _361  and  _363
REMARK  144  A    between atoms: _363  and  _364
REMARK  145  A    between atoms: _363  and  _366
REMARK  146  A    between atoms: _366  and  _367
REMARK  147  A    between atoms: _370  and  _372
REMARK  148  A    between atoms: _372  and  _373
REMARK  149  A    between atoms: _372  and  _375
REMARK  150  A    between atoms: _375  and  _376
REMARK  151  A    between atoms: _378  and  _380
REMARK  152  A    between atoms: _380  and  _381
REMARK  153  A    between atoms: _380  and  _383
REMARK  154  A    between atoms: _383  and  _384
REMARK  155  A    between atoms: _384  and  _494
REMARK  156  A    between atoms: _385  and  _387
REMARK  157  A    between atoms: _387  and  _388
REMARK  158  A    between atoms: _387  and  _390
REMARK  159  A    between atoms: _390  and  _391
REMARK  160  A    between atoms: _391  and  _392
REMARK  161  A    between atoms: _397  and  _399
REMARK  162  A    between atoms: _399  and  _400
REMARK  163  A    between atoms: _402  and  _404
REMARK  164  A    between atoms: _404  and  _405
REMARK  165  A    between atoms: _404  and  _407
REMARK  166  A    between atoms: _407  and  _408
REMARK  167  A    between atoms: _411  and  _413
REMARK  168  A    between atoms: _413  and  _414
REMARK  169  A    between atoms: _413  and  _416
REMARK  170  A    between atoms: _416  and  _417
REMARK  171  A    between atoms: _419  and  _421
REMARK  172  A    between atoms: _421  and  _422
REMARK  173  A    between atoms: _424  and  _426
REMARK  174  A    between atoms: _426  and  _427
REMARK  175  A    between atoms: _429  and  _431
REMARK  176  A    between atoms: _431  and  _432
REMARK  177  A    between atoms: _431  and  _434
REMARK  178  A    between atoms: _437  and  _439
REMARK  179  A    between atoms: _439  and  _440
REMARK  180  A    between atoms: _439  and  _442
REMARK  181  A    between atoms: _445  and  _447
REMARK  182  A    between atoms: _447  and  _448
REMARK  183  A    between atoms: _447  and  _450
REMARK  184  A    between atoms: _450  and  _451
REMARK  185  A    between atoms: _453  and  _455
REMARK  186  A    between atoms: _455  and  _456
REMARK  187  A    between atoms: _455  and  _458
REMARK  188  A    between atoms: _458  and  _459
REMARK  189  A    between atoms: _469  and  _471
REMARK  190  A    between atoms: _471  and  _472
REMARK  191  A    between atoms: _474  and  _476
REMARK  192  A    between atoms: _476  and  _477
REMARK  193  A    between atoms: _476  and  _479
REMARK  194  A    between atoms: _479  and  _480
REMARK  195  A    between atoms: _483  and  _485
REMARK  196  A    between atoms: _485  and  _486
REMARK  197  A    between atoms: _488  and  _490
REMARK  198  A    between atoms: _490  and  _491
REMARK  199  A    between atoms: _490  and  _493
REMARK  200  A    between atoms: _493  and  _494
REMARK  201  A    between atoms: _495  and  _497
REMARK  202  A    between atoms: _497  and  _498
REMARK  203  A    between atoms: _501  and  _503
REMARK  204  A    between atoms: _503  and  _504
REMARK  205  A    between atoms: _503  and  _506
REMARK  206  A    between atoms: _506  and  _507
REMARK  207  A    between atoms: _507  and  _508
REMARK  208  A    between atoms: _513  and  _515
REMARK  209  A    between atoms: _515  and  _516
REMARK  210  A    between atoms: _515  and  _518
REMARK  211  A    between atoms: _518  and  _519
REMARK  212  A    between atoms: _519  and  _520
REMARK  213  A    between atoms: _520  and  _521
REMARK  214  A    between atoms: _521  and  _522
REMARK  215  A    between atoms: _527  and  _528
REMARK  216  A    between atoms: _533  and  _535
REMARK  217  A    between atoms: _535  and  _536
REMARK  218  A    between atoms: _538  and  _540
REMARK  219  A    between atoms: _540  and  _541
REMARK  220  A    between atoms: _540  and  _543
REMARK  221  A    between atoms: _546  and  _548
REMARK  222  A    between atoms: _548  and  _549
REMARK  223  A    between atoms: _548  and  _551
REMARK  224  A    between atoms: _551  and  _552
REMARK  225  A    between atoms: _557  and  _558
REMARK                            x       y       z     vdW  Elec       q    Type
REMARK                         _______ _______ _______ _____ _____    ______ ____
ROOT
ATOM      1  CA  SER A   8      23.813  59.387  28.912  0.00  0.00    +0.160 C 
ENDROOT
BRANCH   1   2
ATOM      2  C   SER A   8      24.951  58.662  29.554  0.00  0.00    +0.242 C 
ATOM      3  O   SER A   8      25.892  59.319  30.116  0.00  0.00    -0.273 OA
ATOM      4  N   GLY A   9      24.886  57.336  29.479  0.00  0.00    -0.297 N 
ATOM      5  H   GLY A   9      24.026  56.909  29.078  0.00  0.00    +0.150 HD
BRANCH   4   6
ATOM      6  CA  GLY A   9      25.966  56.433  29.933  0.00  0.00    +0.149 C 
ATOM      7  CB  GLY A   9      27.257  56.671  29.147  0.00  0.00    +0.031 C 
BRANCH   6   8
ATOM      8  C   GLY A   9      26.255  56.590  31.431  0.00  0.00    +0.241 C 
ATOM      9  N   GLY A  10      25.105  57.044  32.204  0.00  0.00    -0.298 N 
ATOM     10  H   GLY A  10      24.256  57.316  31.668  0.00  0.00    +0.150 HD
ATOM     11  O   GLY A   9      27.193  55.996  31.967  0.00  0.00    -0.273 OA
BRANCH   9  12
ATOM     12  CA  GLY A  10      25.031  57.154  33.665  0.00  0.00    +0.137 C 
BRANCH  12  13
ATOM     13  C   GLY A  10      24.775  55.792  34.281  0.00  0.00    +0.227 C 
ATOM     14  O   GLY A  10      24.006  55.042  33.740  0.00  0.00    -0.286 OA
ENDBRANCH  12  13
BRANCH  12  15
ATOM     15  CB  GLY A  10      23.909  58.101  34.008  0.00  0.00    +0.037 C 
BRANCH  15  16
ATOM     16  CG  GLY A  10      24.280  59.527  33.731  0.00  0.00    +0.087 C 
BRANCH  16  17
ATOM     17  CD  GLY A  10      23.616  60.485  34.723  0.00  0.00    +0.219 C 
ATOM     18  OE1 GLY A  10      24.284  61.118  35.523  0.00  0.00    -0.275 OA
ATOM     19  NE2 GLY A  10      22.279  60.542  34.698  0.00  0.00    -0.329 N 
ATOM     20 HE21 GLY A  10      21.771  61.143  35.378  0.00  0.00    +0.145 HD
ATOM     21 HE22 GLY A  10      21.748  59.985  33.998  0.00  0.00    +0.145 HD
ENDBRANCH  16  17
ENDBRANCH  15  16
ENDBRANCH  12  15
ENDBRANCH   9  12
ENDBRANCH   6   8
ENDBRANCH   4   6
ENDBRANCH   1   2
BRANCH   1  22
ATOM     22  N   SER A   8      23.361  60.379  29.872  0.00  0.00    -0.296 N 
ATOM     23  H   SER A   8      24.001  60.717  30.618  0.00  0.00    +0.150 HD
ATOM     24  C   ASP A   7      22.127  60.848  29.788  0.00  0.00    +0.243 C 
ATOM     25  O   ASP A   7      21.254  60.352  29.019  0.00  0.00    -0.273 OA
BRANCH  24  26
ATOM     26  CA  ASP A   7      21.780  62.010  30.739  0.00  0.00    +0.176 C 
BRANCH  26  27
ATOM     27  N   ASP A   7      20.413  61.723  31.196  0.00  0.00    -0.295 N 
ATOM     28  C   GLY A   6      19.845  60.536  31.871  0.00  0.00    +0.241 C 
ATOM     29  O   GLY A   6      20.695  59.628  32.065  0.00  0.00    -0.273 OA
ATOM     30  H   ASP A   7      19.728  62.484  31.014  0.00  0.00    +0.150 HD
BRANCH  28  31
ATOM     31  CA  GLY A   6      18.322  60.266  31.821  0.00  0.00    +0.160 C 
BRANCH  31  32
ATOM     32  N   GLY A   6      18.044  59.254  30.795  0.00  0.00    -0.296 N 
ATOM     33  H   GLY A   6      18.160  58.248  31.031  0.00  0.00    +0.150 HD
ATOM     34  C   GLN A   5      17.652  59.589  29.584  0.00  0.00    +0.243 C 
ATOM     35  O   GLN A   5      17.480  60.781  29.207  0.00  0.00    -0.273 OA
BRANCH  34  36
ATOM     36  CA  GLN A   5      17.386  58.407  28.657  0.00  0.00    +0.176 C 
BRANCH  36  37
ATOM     37  N   GLN A   5      16.683  58.944  27.479  0.00  0.00    -0.295 N 
ATOM     38  H   GLN A   5      16.578  59.974  27.377  0.00  0.00    +0.150 HD
ATOM     39  C   TRP A   4      16.177  58.142  26.540  0.00  0.00    +0.241 C 
ATOM     40  O   TRP A   4      16.430  56.952  26.511  0.00  0.00    -0.273 OA
BRANCH  39  41
ATOM     41  CA  TRP A   4      15.311  58.799  25.483  0.00  0.00    +0.153 C 
BRANCH  41  42
ATOM     42  N   TRP A   4      14.884  57.931  24.428  0.00  0.00    -0.297 N 
ATOM     43  H   TRP A   4      14.833  56.909  24.616  0.00  0.00    +0.150 HD
ATOM     44  C   SER A   3      14.547  58.374  23.211  0.00  0.00    +0.243 C 
ATOM     45  O   SER A   3      14.634  59.511  22.896  0.00  0.00    -0.273 OA
BRANCH  44  46
ATOM     46  CA  SER A   3      14.089  57.314  22.181  0.00  0.00    +0.178 C 
BRANCH  46  47
ATOM     47  N   SER A   3      15.228  56.447  21.777  0.00  0.00    -0.295 N 
ATOM     48  H   SER A   3      15.727  55.863  22.478  0.00  0.00    +0.150 HD
ATOM     49  C   VAL A   2      15.595  56.436  20.496  0.00  0.00    +0.241 C 
ATOM     50  O   VAL A   2      15.124  57.236  19.653  0.00  0.00    -0.273 OA
BRANCH  49  51
ATOM     51  CA  VAL A   2      16.584  55.350  20.047  0.00  0.00    +0.148 C 
BRANCH  51  52
ATOM     52  N   VAL A   2      16.022  54.507  18.991  0.00  0.00    -0.297 N 
ATOM     53  C   VAL A   1      14.916  53.792  19.214  0.00  0.00    +0.238 C 
ATOM     54  O   VAL A   1      14.333  53.772  20.330  0.00  0.00    -0.274 OA
ATOM     55  H   VAL A   2      16.486  54.464  18.061  0.00  0.00    +0.150 HD
BRANCH  53  56
ATOM     56  CA  VAL A   1      14.311  53.059  18.030  0.00  0.00    +0.145 C 
BRANCH  56  57
ATOM     57  CB  VAL A   1      12.983  53.760  17.552  0.00  0.00    +0.025 C 
ATOM     58  CG2 VAL A   1      13.279  55.151  16.952  0.00  0.00    +0.002 C 
ATOM     59  CG1 VAL A   1      12.259  52.929  16.474  0.00  0.00    +0.002 C 
ENDBRANCH  56  57
BRANCH  56  60
ATOM     60  N   VAL A   1      14.064  51.696  18.498  0.00  0.00    -0.238 NA
ATOM     61  H   VAL A   1      13.376  51.551  19.264  0.00  0.00    +0.142 HD
ENDBRANCH  56  60
ENDBRANCH  53  56
ENDBRANCH  51  52
BRANCH  51  62
ATOM     62  CB  VAL A   2      17.872  56.103  19.588  0.00  0.00    +0.027 C 
ATOM     63  CG2 VAL A   2      18.454  56.820  20.794  0.00  0.00    +0.002 C 
ATOM     64  CG1 VAL A   2      18.895  55.136  18.950  0.00  0.00    +0.002 C 
ENDBRANCH  51  62
ENDBRANCH  49  51
ENDBRANCH  46  47
BRANCH  46  65
ATOM     65  CB  SER A   3      12.826  56.480  22.653  0.00  0.00    +0.166 C 
BRANCH  65  66
ATOM     66  OG  SER A   3      11.804  57.368  23.152  0.00  0.00    -0.380 OA
ATOM     67  H   SER A   3      11.532  57.993  22.434  0.00  0.00    +0.211 HD
ENDBRANCH  65  66
ENDBRANCH  46  65
ENDBRANCH  44  46
ENDBRANCH  41  42
BRANCH  41  68
ATOM     68  CB  TRP A   4      14.121  59.463  26.172  0.00  0.00    +0.057 C 
BRANCH  68  69
ATOM     69  CG  TRP A   4      13.244  58.488  26.910  0.00  0.00    -0.002 A 
ATOM     70  CD2 TRP A   4      13.204  58.243  28.377  0.00  0.00    +0.013 A 
ATOM     71  CE3 TRP A   4      13.918  58.743  29.495  0.00  0.00    +0.001 A 
ATOM     72  CZ3 TRP A   4      13.579  58.283  30.784  0.00  0.00    +0.000 A 
ATOM     73  CH2 TRP A   4      12.569  57.300  30.984  0.00  0.00    +0.001 A 
ATOM     74  CZ2 TRP A   4      11.821  56.792  29.899  0.00  0.00    +0.017 A 
ATOM     75  CE2 TRP A   4      12.125  57.270  28.607  0.00  0.00    +0.056 A 
ATOM     76  NE1 TRP A   4      11.581  56.971  27.382  0.00  0.00    -0.352 N 
ATOM     77  HE1 TRP A   4      10.794  56.308  27.229  0.00  0.00    +0.166 HD
ATOM     78  CD1 TRP A   4      12.231  57.680  26.372  0.00  0.00    +0.068 A 
ENDBRANCH  68  69
ENDBRANCH  41  68
ENDBRANCH  39  41
ENDBRANCH  36  37
ENDBRANCH  34  36
ENDBRANCH  31  32
BRANCH  31  79
ATOM     79  CB  GLY A   6      17.696  59.841  33.186  0.00  0.00    +0.143 C 
BRANCH  79  80
ATOM     80  CG  GLY A   6      18.167  60.727  34.386  0.00  0.00    +0.367 C 
ATOM     81  OD2 GLY A   6      17.845  60.444  35.560  0.00  0.00    -0.246 OA
ATOM     82  OD1 GLY A   6      18.861  61.709  34.154  0.00  0.00    -0.246 OA
ENDBRANCH  79  80
ENDBRANCH  31  79
ENDBRANCH  28  31
ENDBRANCH  26  27
ENDBRANCH  24  26
ENDBRANCH   1  22
BRANCH   1  83
ATOM     83  CB  SER A   8      24.338  60.044  27.624  0.00  0.00    +0.098 C 
BRANCH  83  84
ATOM     84  SG  SER A   8      23.266  61.246  26.740  0.00  0.00    -0.080 S 
BRANCH  84  85
ATOM     85  SG  TRP A   4      24.318  61.841  25.123  0.00  0.00    -0.080 S 
BRANCH  85  86
ATOM     86  CB  TRP A   4      24.257  60.489  23.999  0.00  0.00    +0.098 C 
BRANCH  86  87
ATOM     87  CA  TRP A   4      22.821  60.120  23.534  0.00  0.00    +0.160 C 
BRANCH  87  88
ATOM     88  C   TRP A   4      22.065  61.143  22.606  0.00  0.00    +0.242 C 
ATOM     89  N   GLN A   5      21.777  62.386  23.070  0.00  0.00    -0.297 N 
ATOM     90  H   GLN A   5      21.970  62.614  24.066  0.00  0.00    +0.150 HD
ATOM     91  O   TRP A   4      21.611  60.719  21.518  0.00  0.00    -0.273 OA
BRANCH  89  92
ATOM     92  CA  GLN A   5      21.194  63.424  22.189  0.00  0.00    +0.149 C 
BRANCH  92  93
ATOM     93  C   GLN A   5      21.702  63.291  20.712  0.00  0.00    +0.241 C 
ATOM     94  O   GLN A   5      22.921  63.150  20.477  0.00  0.00    -0.273 OA
ATOM     95  N   GLY A   6      20.772  63.278  19.751  0.00  0.00    -0.295 N 
ATOM     96  H   GLY A   6      19.774  63.320  20.042  0.00  0.00    +0.150 HD
BRANCH  95  97
ATOM     97  CA  GLY A   6      21.063  63.208  18.309  0.00  0.00    +0.176 C 
BRANCH  97  98
ATOM     98  C   GLY A   6      21.162  61.786  17.778  0.00  0.00    +0.243 C 
ATOM     99  N   ASP A   7      21.283  60.773  18.659  0.00  0.00    -0.296 N 
ATOM    100  H   ASP A   7      21.416  60.966  19.672  0.00  0.00    +0.150 HD
ATOM    101  O   GLY A   6      21.148  61.594  16.596  0.00  0.00    -0.273 OA
BRANCH  99 102
ATOM    102  CA  ASP A   7      21.224  59.393  18.163  0.00  0.00    +0.160 C 
BRANCH 102 103
ATOM    103  C   ASP A   7      19.756  59.062  18.039  0.00  0.00    +0.241 C 
ATOM    104  N   SER A   8      18.938  59.813  18.786  0.00  0.00    -0.295 N 
ATOM    105  H   SER A   8      19.349  60.539  19.407  0.00  0.00    +0.150 HD
ATOM    106  O   ASP A   7      19.393  58.135  17.302  0.00  0.00    -0.273 OA
BRANCH 104 107
ATOM    107  CA  SER A   8      17.475  59.646  18.759  0.00  0.00    +0.178 C 
BRANCH 107 108
ATOM    108  C   SER A   8      16.949  59.439  17.325  0.00  0.00    +0.243 C 
ATOM    109  N   GLY A   9      15.991  58.499  17.173  0.00  0.00    -0.295 N 
ATOM    110  H   GLY A   9      15.658  57.999  18.022  0.00  0.00    +0.150 HD
ATOM    111  O   SER A   8      17.414  60.147  16.386  0.00  0.00    -0.273 OA
BRANCH 109 112
ATOM    112  CA  GLY A   9      15.399  58.146  15.897  0.00  0.00    +0.176 C 
BRANCH 112 113
ATOM    113  C   GLY A   9      16.182  57.041  15.177  0.00  0.00    +0.243 C 
ATOM    114  N   GLY A  10      17.448  56.815  15.543  0.00  0.00    -0.296 N 
ATOM    115  H   GLY A  10      17.878  57.350  16.324  0.00  0.00    +0.150 HD
ATOM    116  O   GLY A   9      15.625  56.382  14.329  0.00  0.00    -0.273 OA
BRANCH 114 117
ATOM    117  CA  GLY A  10      18.233  55.778  14.807  0.00  0.00    +0.163 C 
BRANCH 117 118
ATOM    118  C   GLY A  10      17.836  54.353  15.273  0.00  0.00    +0.229 C 
ATOM    119  O   GLY A  10      17.191  54.172  16.282  0.00  0.00    -0.286 OA
ENDBRANCH 117 118
ENDBRANCH 114 117
ENDBRANCH 112 113
ENDBRANCH 109 112
ENDBRANCH 107 108
BRANCH 107 120
ATOM    120  CB  SER A   8      16.875  60.900  19.306  0.00  0.00    +0.166 C 
BRANCH 120 121
ATOM    121  OG  SER A   8      17.228  61.108  20.657  0.00  0.00    -0.380 OA
ATOM    122  H   SER A   8      16.812  61.946  20.980  0.00  0.00    +0.211 HD
ENDBRANCH 120 121
ENDBRANCH 107 120
ENDBRANCH 104 107
ENDBRANCH 102 103
BRANCH 102 123
ATOM    123  CB  ASP A   7      21.854  58.407  19.187  0.00  0.00    +0.143 C 
BRANCH 123 124
ATOM    124  CG  ASP A   7      23.366  58.604  19.304  0.00  0.00    +0.367 C 
ATOM    125  OD2 ASP A   7      23.946  58.472  20.388  0.00  0.00    -0.246 OA
ATOM    126  OD1 ASP A   7      23.965  58.859  18.241  0.00  0.00    -0.246 OA
ENDBRANCH 123 124
ENDBRANCH 102 123
ENDBRANCH  99 102
ENDBRANCH  97  98
ENDBRANCH  95  97
ENDBRANCH  92  93
BRANCH  92 127
ATOM    127  CB  GLN A   5      21.464  64.841  22.750  0.00  0.00    +0.039 C 
BRANCH 127 128
ATOM    128  CG  GLN A   5      20.827  65.988  21.909  0.00  0.00    +0.087 C 
BRANCH 128 129
ATOM    129  CD  GLN A   5      21.154  67.450  22.380  0.00  0.00    +0.219 C 
ATOM    130  NE2 GLN A   5      21.201  67.670  23.660  0.00  0.00    -0.329 N 
ATOM    131 HE21 GLN A   5      21.063  66.885  24.328  0.00  0.00    +0.145 HD
ATOM    132 HE22 GLN A   5      21.376  68.631  24.016  0.00  0.00    +0.145 HD
ATOM    133  OE1 GLN A   5      21.314  68.363  21.564  0.00  0.00    -0.275 OA
ENDBRANCH 128 129
ENDBRANCH 127 128
ENDBRANCH  92 127
ENDBRANCH  89  92
ENDBRANCH  87  88
BRANCH  87 136
ATOM    134  C   SER A   3      23.055  57.751  23.672  0.00  0.00    +0.243 C 
ATOM    135  O   SER A   3      22.976  57.835  24.958  0.00  0.00    -0.273 OA
ATOM    136  N   TRP A   4      22.910  58.818  22.893  0.00  0.00    -0.296 N 
ATOM    137  H   TRP A   4      22.862  58.725  21.858  0.00  0.00    +0.150 HD
BRANCH 134 138
ATOM    138  CA  SER A   3      23.210  56.387  22.970  0.00  0.00    +0.178 C 
BRANCH 138 140
ATOM    139  C   VAL A   2      24.702  55.193  24.433  0.00  0.00    +0.241 C 
ATOM    140  N   SER A   3      23.452  55.352  23.992  0.00  0.00    -0.295 N 
ATOM    141  H   SER A   3      22.675  54.765  24.357  0.00  0.00    +0.150 HD
ATOM    142  O   VAL A   2      25.685  55.675  23.864  0.00  0.00    -0.273 OA
BRANCH 139 143
ATOM    143  CA  VAL A   2      24.866  54.388  25.680  0.00  0.00    +0.160 C 
BRANCH 143 146
ATOM    144  C   VAL A   1      26.647  52.900  26.525  0.00  0.00    +0.238 C 
ATOM    145  O   VAL A   1      25.864  52.226  27.259  0.00  0.00    -0.274 OA
ATOM    146  N   VAL A   2      26.250  53.916  25.710  0.00  0.00    -0.297 N 
ATOM    147  H   VAL A   2      26.952  54.370  25.091  0.00  0.00    +0.150 HD
BRANCH 144 148
ATOM    148  CA  VAL A   1      28.164  52.638  26.621  0.00  0.00    +0.145 C 
BRANCH 148 149
ATOM    149  CB  VAL A   1      28.539  51.288  25.906  0.00  0.00    +0.025 C 
ATOM    150  CG2 VAL A   1      29.997  50.918  26.190  0.00  0.00    +0.002 C 
ATOM    151  CG1 VAL A   1      28.273  51.420  24.384  0.00  0.00    +0.002 C 
ENDBRANCH 148 149
BRANCH 148 152
ATOM    152  N   VAL A   1      28.579  52.663  28.043  0.00  0.00    -0.238 NA
ATOM    153  H   VAL A   1      28.169  51.981  28.713  0.00  0.00    +0.142 HD
ENDBRANCH 148 152
ENDBRANCH 144 148
ENDBRANCH 143 146
BRANCH 143 154
ATOM    154  CB  VAL A   2      24.540  55.335  26.870  0.00  0.00    +0.143 C 
BRANCH 154 155
ATOM    155  CG  VAL A   2      23.024  55.383  27.242  0.00  0.00    +0.367 C 
ATOM    156  OD2 VAL A   2      22.684  56.026  28.278  0.00  0.00    -0.246 OA
ATOM    157  OD1 VAL A   2      22.171  54.839  26.496  0.00  0.00    -0.246 OA
ENDBRANCH 154 155
ENDBRANCH 143 154
ENDBRANCH 139 143
ENDBRANCH 138 140
BRANCH 138 158
ATOM    158  CB  SER A   3      21.936  56.030  22.126  0.00  0.00    +0.166 C 
BRANCH 158 159
ATOM    159  OG  SER A   3      20.871  55.620  23.004  0.00  0.00    -0.380 OA
ATOM    160  H   SER A   3      21.157  54.825  23.519  0.00  0.00    +0.211 HD
ENDBRANCH 158 159
ENDBRANCH 138 158
ENDBRANCH 134 138
ENDBRANCH  87 136
ENDBRANCH  86  87
ENDBRANCH  85  86
ENDBRANCH  84  85
ENDBRANCH  83  84
ENDBRANCH   1  83
TORSDOF 68
REMARK  Name = ../refined-set-2016/4jz1/4jz1_pocket.pdb
REMARK  225 active torsions:
REMARK  status: ('A' for Active; 'I' for Inactive)
REMARK    1  A    between atoms: _1  and  _5
REMARK    2  A    between atoms: _5  and  _6
REMARK    3  A    between atoms: _5  and  _8
REMARK    4  A    between atoms: _11  and  _13
REMARK    5  A    between atoms: _13  and  _14
REMARK    6  A    between atoms: _13  and  _16
REMARK    7  A    between atoms: _19  and  _21
REMARK    8  A    between atoms: _21  and  _22
REMARK    9  A    between atoms: _21  and  _24
REMARK   10  A    between atoms: _24  and  _25
REMARK   11  A    between atoms: _25  and  _26
REMARK   12  A    between atoms: _31  and  _33
REMARK   13  A    between atoms: _33  and  _34
REMARK   14  A    between atoms: _33  and  _36
REMARK   15  A    between atoms: _36  and  _37
REMARK   16  A    between atoms: _42  and  _44
REMARK   17  A    between atoms: _44  and  _45
REMARK   18  A    between atoms: _44  and  _47
REMARK   19  A    between atoms: _47  and  _48
REMARK   20  A    between atoms: _51  and  _53
REMARK   21  A    between atoms: _53  and  _54
REMARK   22  A    between atoms: _53  and  _56
REMARK   23  A    between atoms: _56  and  _57
REMARK   24  A    between atoms: _57  and  _92
REMARK   25  A    between atoms: _58  and  _60
REMARK   26  A    between atoms: _60  and  _61
REMARK   27  A    between atoms: _63  and  _65
REMARK   28  A    between atoms: _65  and  _66
REMARK   29  A    between atoms: _69  and  _71
REMARK   30  A    between atoms: _71  and  _72
REMARK   31  A    between atoms: _75  and  _77
REMARK   32  A    between atoms: _77  and  _78
REMARK   33  A    between atoms: _77  and  _80
REMARK   34  A    between atoms: _80  and  _81
REMARK   35  A    between atoms: _86  and  _88
REMARK   36  A    between atoms: _88  and  _89
REMARK   37  A    between atoms: _88  and  _91
REMARK   38  A    between atoms: _91  and  _92
REMARK   39  A    between atoms: _93  and  _95
REMARK   40  A    between atoms: _95  and  _96
REMARK   41  A    between atoms: _95  and  _98
REMARK   42  A    between atoms: _98  and  _99
REMARK   43  A    between atoms: _104  and  _105
REMARK   44  A    between atoms: _107  and  _109
REMARK   45  A    between atoms: _109  and  _110
REMARK   46  A    between atoms: _109  and  _112
REMARK   47  A    between atoms: _112  and  _113
REMARK   48  A    between atoms: _116  and  _118
REMARK   49  A    between atoms: _118  and  _119
REMARK   50  A    between atoms: _118  and  _121
REMARK   51  A    between atoms: _121  and  _122
REMARK   52  A    between atoms: _125  and  _127
REMARK   53  A    between atoms: _127  and  _128
REMARK   54  A    between atoms: _127  and  _130
REMARK   55  A    between atoms: _130  and  _131
REMARK   56  A    between atoms: _134  and  _136
REMARK   57  A    between atoms: _136  and  _137
REMARK   58  A    between atoms: _136  and  _139
REMARK   59  A    between atoms: _139  and  _140
REMARK   60  A    between atoms: _145  and  _146
REMARK   61  A    between atoms: _148  and  _150
REMARK   62  A    between atoms: _150  and  _151
REMARK   63  A    between atoms: _150  and  _153
REMARK   64  A    between atoms: _153  and  _154
REMARK   65  A    between atoms: _164  and  _166
REMARK   66  A    between atoms: _166  and  _167
REMARK   67  A    between atoms: _166  and  _169
REMARK   68  A    between atoms: _169  and  _170
REMARK   69  A    between atoms: _175  and  _177
REMARK   70  A    between atoms: _177  and  _178
REMARK   71  A    between atoms: _177  and  _180
REMARK   72  A    between atoms: _180  and  _181
REMARK   73  A    between atoms: _184  and  _186
REMARK   74  A    between atoms: _186  and  _187
REMARK   75  A    between atoms: _186  and  _189
REMARK   76  A    between atoms: _189  and  _190
REMARK   77  A    between atoms: _196  and  _198
REMARK   78  A    between atoms: _198  and  _199
REMARK   79  A    between atoms: _198  and  _201
REMARK   80  A    between atoms: _201  and  _202
REMARK   81  A    between atoms: _205  and  _207
REMARK   82  A    between atoms: _207  and  _208
REMARK   83  A    between atoms: _207  and  _210
REMARK   84  A    between atoms: _210  and  _211
REMARK   85  A    between atoms: _217  and  _219
REMARK   86  A    between atoms: _219  and  _220
REMARK   87  A    between atoms: _219  and  _222
REMARK   88  A    between atoms: _222  and  _223
REMARK   89  A    between atoms: _226  and  _228
REMARK   90  A    between atoms: _228  and  _229
REMARK   91  A    between atoms: _228  and  _231
REMARK   92  A    between atoms: _231  and  _232
REMARK   93  A    between atoms: _235  and  _237
REMARK   94  A    between atoms: _237  and  _238
REMARK   95  A    between atoms: _237  and  _240
REMARK   96  A    between atoms: _243  and  _245
REMARK   97  A    between atoms: _245  and  _246
REMARK   98  A    between atoms: _248  and  _250
REMARK   99  A    between atoms: _250  and  _251
REMARK  100  A    between atoms: _250  and  _253
REMARK  101  A    between atoms: _253  and  _254
REMARK  102  A    between atoms: _259  and  _261
REMARK  103  A    between atoms: _261  and  _262
REMARK  104  A    between atoms: _261  and  _264
REMARK  105  A    between atoms: _264  and  _265
REMARK  106  A    between atoms: _270  and  _271
REMARK  107  A    between atoms: _273  and  _275
REMARK  108  A    between atoms: _275  and  _276
REMARK  109  A    between atoms: _278  and  _280
REMARK  110  A    between atoms: _280  and  _281
REMARK  111  A    between atoms: _280  and  _283
REMARK  112  A    between atoms: _283  and  _284
REMARK  113  A    between atoms: _287  and  _289
REMARK  114  A    between atoms: _289  and  _290
REMARK  115  A    between atoms: _289  and  _292
REMARK  116  A    between atoms: _292  and  _293
REMARK  117  A    between atoms: _297  and  _298
REMARK  118  A    between atoms: _303  and  _305
REMARK  119  A    between atoms: _305  and  _306
REMARK  120  A    between atoms: _305  and  _308
REMARK  121  A    between atoms: _308  and  _309
REMARK  122  A    between atoms: _309  and  _310
REMARK  123  A    between atoms: _315  and  _317
REMARK  124  A    between atoms: _317  and  _318
REMARK  125  A    between atoms: _317  and  _320
REMARK  126  A    between atoms: _320  and  _321
REMARK  127  A    between atoms: _321  and  _322
REMARK  128  A    between atoms: _327  and  _329
REMARK  129  A    between atoms: _329  and  _330
REMARK  130  A    between atoms: _329  and  _332
REMARK  131  A    between atoms: _332  and  _333
REMARK  132  A    between atoms: _336  and  _338
REMARK  133  A    between atoms: _338  and  _339
REMARK  134  A    between atoms: _338  and  _341
REMARK  135  A    between atoms: _341  and  _342
REMARK  136  A    between atoms: _342  and  _343
REMARK  137  A    between atoms: _345  and  _347
REMARK  138  A    between atoms: _347  and  _348
REMARK  139  A    between atoms: _347  and  _350
REMARK  140  A    between atoms: _353  and  _355
REMARK  141  A    between atoms: _355  and  _356
REMARK  142  A    between atoms: _355  and  _358
REMARK  143  A    between atoms: _361  and  _363
REMARK  144  A    between atoms: _363  and  _364
REMARK  145  A    between atoms: _363  and  _366
REMARK  146  A    between atoms: _366  and  _367
REMARK  147  A    between atoms: _370  and  _372
REMARK  148  A    between atoms: _372  and  _373
REMARK  149  A    between atoms: _372  and  _375
REMARK  150  A    between atoms: _375  and  _376
REMARK  151  A    between atoms: _378  and  _380
REMARK  152  A    between atoms: _380  and  _381
REMARK  153  A    between atoms: _380  and  _383
REMARK  154  A    between atoms: _383  and  _384
REMARK  155  A    between atoms: _384  and  _494
REMARK  156  A    between atoms: _385  and  _387
REMARK  157  A    between atoms: _387  and  _388
REMARK  158  A    between atoms: _387  and  _390
REMARK  159  A    between atoms: _390  and  _391
REMARK  160  A    between atoms: _391  and  _392
REMARK  161  A    between atoms: _397  and  _399
REMARK  162  A    between atoms: _399  and  _400
REMARK  163  A    between atoms: _402  and  _404
REMARK  164  A    between atoms: _404  and  _405
REMARK  165  A    between atoms: _404  and  _407
REMARK  166  A    between atoms: _407  and  _408
REMARK  167  A    between atoms: _411  and  _413
REMARK  168  A    between atoms: _413  and  _414
REMARK  169  A    between atoms: _413  and  _416
REMARK  170  A    between atoms: _416  and  _417
REMARK  171  A    between atoms: _419  and  _421
REMARK  172  A    between atoms: _421  and  _422
REMARK  173  A    between atoms: _424  and  _426
REMARK  174  A    between atoms: _426  and  _427
REMARK  175  A    between atoms: _429  and  _431
REMARK  176  A    between atoms: _431  and  _432
REMARK  177  A    between atoms: _431  and  _434
REMARK  178  A    between atoms: _437  and  _439
REMARK  179  A    between atoms: _439  and  _440
REMARK  180  A    between atoms: _439  and  _442
REMARK  181  A    between atoms: _445  and  _447
REMARK  182  A    between atoms: _447  and  _448
REMARK  183  A    between atoms: _447  and  _450
REMARK  184  A    between atoms: _450  and  _451
REMARK  185  A    between atoms: _453  and  _455
REMARK  186  A    between atoms: _455  and  _456
REMARK  187  A    between atoms: _455  and  _458
REMARK  188  A    between atoms: _458  and  _459
REMARK  189  A    between atoms: _469  and  _471
REMARK  190  A    between atoms: _471  and  _472
REMARK  191  A    between atoms: _474  and  _476
REMARK  192  A    between atoms: _476  and  _477
REMARK  193  A    between atoms: _476  and  _479
REMARK  194  A    between atoms: _479  and  _480
REMARK  195  A    between atoms: _483  and  _485
REMARK  196  A    between atoms: _485  and  _486
REMARK  197  A    between atoms: _488  and  _490
REMARK  198  A    between atoms: _490  and  _491
REMARK  199  A    between atoms: _490  and  _493
REMARK  200  A    between atoms: _493  and  _494
REMARK  201  A    between atoms: _495  and  _497
REMARK  202  A    between atoms: _497  and  _498
REMARK  203  A    between atoms: _501  and  _503
REMARK  204  A    between atoms: _503  and  _504
REMARK  205  A    between atoms: _503  and  _506
REMARK  206  A    between atoms: _506  and  _507
REMARK  207  A    between atoms: _507  and  _508
REMARK  208  A    between atoms: _513  and  _515
REMARK  209  A    between atoms: _515  and  _516
REMARK  210  A    between atoms: _515  and  _518
REMARK  211  A    between atoms: _518  and  _519
REMARK  212  A    between atoms: _519  and  _520
REMARK  213  A    between atoms: _520  and  _521
REMARK  214  A    between atoms: _521  and  _522
REMARK  215  A    between atoms: _527  and  _528
REMARK  216  A    between atoms: _533  and  _535
REMARK  217  A    between atoms: _535  and  _536
REMARK  218  A    between atoms: _538  and  _540
REMARK  219  A    between atoms: _540  and  _541
REMARK  220  A    between atoms: _540  and  _543
REMARK  221  A    between atoms: _546  and  _548
REMARK  222  A    between atoms: _548  and  _549
REMARK  223  A    between atoms: _548  and  _551
REMARK  224  A    between atoms: _551  and  _552
REMARK  225  A    between atoms: _557  and  _558
REMARK                            x       y       z     vdW  Elec       q    Type
REMARK                         _______ _______ _______ _____ _____    ______ ____
ROOT
ATOM      1  C   GLY A   3      17.685  53.417  27.149  0.00  0.00    +0.243 C 
ATOM      2  O   GLY A   3      17.605  52.199  27.371  0.00  0.00    -0.273 OA
ATOM      3  N   VAL A   4      16.649  54.186  26.805  0.00  0.00    -0.297 N 
ATOM      4  H   VAL A   4      16.807  55.201  26.642  0.00  0.00    +0.150 HD
ENDROOT
BRANCH   1   5
ATOM      5  CA  GLY A   3      19.011  54.118  27.294  0.00  0.00    +0.176 C 
BRANCH   5   8
ATOM      6  C   PRO A   2      19.426  53.541  29.625  0.00  0.00    +0.241 C 
ATOM      7  O   PRO A   2      18.454  54.192  30.035  0.00  0.00    -0.273 OA
ATOM      8  N   GLY A   3      19.721  53.396  28.343  0.00  0.00    -0.295 N 
ATOM      9  H   GLY A   3      20.486  52.744  28.075  0.00  0.00    +0.150 HD
BRANCH   6  15
ATOM     10  C   LYS A   1      20.485  54.539  32.262  0.00  0.00    +0.241 C 
ATOM     11  N   PRO A   2      20.127  53.267  31.951  0.00  0.00    -0.272 N 
ATOM     12  CD  PRO A   2      19.615  52.171  32.807  0.00  0.00    +0.094 C 
ATOM     13  CG  PRO A   2      18.892  51.290  31.817  0.00  0.00    +0.024 C 
ATOM     14  CB  PRO A   2      19.924  51.323  30.674  0.00  0.00    +0.031 C 
ATOM     15  CA  PRO A   2      20.347  52.799  30.597  0.00  0.00    +0.152 C 
ATOM     16  O   LYS A   1      20.993  55.282  31.403  0.00  0.00    -0.273 OA
BRANCH  10  17
ATOM     17  CA  LYS A   1      20.273  55.007  33.742  0.00  0.00    +0.145 C 
BRANCH  17  18
ATOM     18  N   LYS A   1      21.106  54.249  34.706  0.00  0.00    -0.238 NA
ATOM     19  H   LYS A   1      22.126  54.170  34.519  0.00  0.00    +0.142 HD
ENDBRANCH  17  18
BRANCH  17  20
ATOM     20  CB  LYS A   1      20.556  56.533  33.968  0.00  0.00    +0.026 C 
BRANCH  20  21
ATOM     21  CG  LYS A   1      19.968  57.011  35.317  0.00  0.00    -0.000 C 
BRANCH  21  22
ATOM     22  CD  LYS A   1      20.569  58.344  35.837  0.00  0.00    -0.024 C 
BRANCH  22  23
ATOM     23  CE  LYS A   1      19.886  58.788  37.170  0.00  0.00    -0.086 C 
BRANCH  23  24
ATOM     24  NZ  LYS A   1      18.409  58.537  36.999  0.00  0.00    +0.380 N 
ATOM     25  HZ1 LYS A   1      17.908  58.819  37.866  0.00  0.00    -0.089 HD
ATOM     26  HZ2 LYS A   1      18.249  57.525  36.818  0.00  0.00    -0.089 HD
ATOM     27  HZ3 LYS A   1      18.055  59.094  36.196  0.00  0.00    -0.089 HD
ENDBRANCH  23  24
ENDBRANCH  22  23
ENDBRANCH  21  22
ENDBRANCH  20  21
ENDBRANCH  17  20
ENDBRANCH  10  17
ENDBRANCH   6  15
ENDBRANCH   5   8
ENDBRANCH   1   5
BRANCH   3  28
ATOM     28  CA  VAL A   4      15.285  53.640  26.649  0.00  0.00    +0.149 C 
BRANCH  28  29
ATOM     29  C   VAL A   4      14.926  53.757  25.182  0.00  0.00    +0.241 C 
ATOM     30  N   TYR A   5      14.337  52.684  24.630  0.00  0.00    -0.298 N 
ATOM     31  H   TYR A   5      13.973  51.945  25.265  0.00  0.00    +0.150 HD
ATOM     32  O   VAL A   4      15.228  54.796  24.551  0.00  0.00    -0.273 OA
BRANCH  30  33
ATOM     33  CA  TYR A   5      14.177  52.494  23.194  0.00  0.00    +0.141 C 
BRANCH  33  34
ATOM     34  C   TYR A   5      12.755  52.112  22.916  0.00  0.00    +0.227 C 
ATOM     35  O   TYR A   5      12.148  51.351  23.670  0.00  0.00    -0.286 OA
ENDBRANCH  33  34
BRANCH  33  36
ATOM     36  CB  TYR A   5      15.150  51.374  22.657  0.00  0.00    +0.054 C 
BRANCH  36  37
ATOM     37  CG  TYR A   5      16.630  51.769  22.815  0.00  0.00    -0.020 A 
ATOM     38  CD2 TYR A   5      17.314  51.555  24.003  0.00  0.00    -0.001 A 
ATOM     39  CE2 TYR A   5      18.675  51.936  24.124  0.00  0.00    +0.036 A 
ATOM     40  CZ  TYR A   5      19.314  52.537  23.072  0.00  0.00    +0.134 A 
ATOM     41  CE1 TYR A   5      18.673  52.802  21.895  0.00  0.00    +0.036 A 
ATOM     42  CD1 TYR A   5      17.326  52.425  21.757  0.00  0.00    -0.001 A 
BRANCH  40  43
ATOM     43  OH  TYR A   5      20.628  52.899  23.216  0.00  0.00    -0.506 OA
ATOM     44  HH  TYR A   5      20.944  52.640  24.118  0.00  0.00    +0.292 HD
ENDBRANCH  40  43
ENDBRANCH  36  37
ENDBRANCH  33  36
ENDBRANCH  30  33
ENDBRANCH  28  29
BRANCH  28  45
ATOM     45  CB  VAL A   4      14.294  54.480  27.491  0.00  0.00    +0.027 C 
ATOM     46  CG2 VAL A   4      14.656  54.364  28.978  0.00  0.00    +0.002 C 
ATOM     47  CG1 VAL A   4      12.878  53.971  27.294  0.00  0.00    +0.002 C 
ENDBRANCH  28  45
ENDBRANCH   3  28
TORSDOF 18
REMARK  Name = ../refined-set-2016/4jz1/4jz1_pocket.pdb
REMARK  225 active torsions:
REMARK  status: ('A' for Active; 'I' for Inactive)
REMARK    1  A    between atoms: _1  and  _5
REMARK    2  A    between atoms: _5  and  _6
REMARK    3  A    between atoms: _5  and  _8
REMARK    4  A    between atoms: _11  and  _13
REMARK    5  A    between atoms: _13  and  _14
REMARK    6  A    between atoms: _13  and  _16
REMARK    7  A    between atoms: _19  and  _21
REMARK    8  A    between atoms: _21  and  _22
REMARK    9  A    between atoms: _21  and  _24
REMARK   10  A    between atoms: _24  and  _25
REMARK   11  A    between atoms: _25  and  _26
REMARK   12  A    between atoms: _31  and  _33
REMARK   13  A    between atoms: _33  and  _34
REMARK   14  A    between atoms: _33  and  _36
REMARK   15  A    between atoms: _36  and  _37
REMARK   16  A    between atoms: _42  and  _44
REMARK   17  A    between atoms: _44  and  _45
REMARK   18  A    between atoms: _44  and  _47
REMARK   19  A    between atoms: _47  and  _48
REMARK   20  A    between atoms: _51  and  _53
REMARK   21  A    between atoms: _53  and  _54
REMARK   22  A    between atoms: _53  and  _56
REMARK   23  A    between atoms: _56  and  _57
REMARK   24  A    between atoms: _57  and  _92
REMARK   25  A    between atoms: _58  and  _60
REMARK   26  A    between atoms: _60  and  _61
REMARK   27  A    between atoms: _63  and  _65
REMARK   28  A    between atoms: _65  and  _66
REMARK   29  A    between atoms: _69  and  _71
REMARK   30  A    between atoms: _71  and  _72
REMARK   31  A    between atoms: _75  and  _77
REMARK   32  A    between atoms: _77  and  _78
REMARK   33  A    between atoms: _77  and  _80
REMARK   34  A    between atoms: _80  and  _81
REMARK   35  A    between atoms: _86  and  _88
REMARK   36  A    between atoms: _88  and  _89
REMARK   37  A    between atoms: _88  and  _91
REMARK   38  A    between atoms: _91  and  _92
REMARK   39  A    between atoms: _93  and  _95
REMARK   40  A    between atoms: _95  and  _96
REMARK   41  A    between atoms: _95  and  _98
REMARK   42  A    between atoms: _98  and  _99
REMARK   43  A    between atoms: _104  and  _105
REMARK   44  A    between atoms: _107  and  _109
REMARK   45  A    between atoms: _109  and  _110
REMARK   46  A    between atoms: _109  and  _112
REMARK   47  A    between atoms: _112  and  _113
REMARK   48  A    between atoms: _116  and  _118
REMARK   49  A    between atoms: _118  and  _119
REMARK   50  A    between atoms: _118  and  _121
REMARK   51  A    between atoms: _121  and  _122
REMARK   52  A    between atoms: _125  and  _127
REMARK   53  A    between atoms: _127  and  _128
REMARK   54  A    between atoms: _127  and  _130
REMARK   55  A    between atoms: _130  and  _131
REMARK   56  A    between atoms: _134  and  _136
REMARK   57  A    between atoms: _136  and  _137
REMARK   58  A    between atoms: _136  and  _139
REMARK   59  A    between atoms: _139  and  _140
REMARK   60  A    between atoms: _145  and  _146
REMARK   61  A    between atoms: _148  and  _150
REMARK   62  A    between atoms: _150  and  _151
REMARK   63  A    between atoms: _150  and  _153
REMARK   64  A    between atoms: _153  and  _154
REMARK   65  A    between atoms: _164  and  _166
REMARK   66  A    between atoms: _166  and  _167
REMARK   67  A    between atoms: _166  and  _169
REMARK   68  A    between atoms: _169  and  _170
REMARK   69  A    between atoms: _175  and  _177
REMARK   70  A    between atoms: _177  and  _178
REMARK   71  A    between atoms: _177  and  _180
REMARK   72  A    between atoms: _180  and  _181
REMARK   73  A    between atoms: _184  and  _186
REMARK   74  A    between atoms: _186  and  _187
REMARK   75  A    between atoms: _186  and  _189
REMARK   76  A    between atoms: _189  and  _190
REMARK   77  A    between atoms: _196  and  _198
REMARK   78  A    between atoms: _198  and  _199
REMARK   79  A    between atoms: _198  and  _201
REMARK   80  A    between atoms: _201  and  _202
REMARK   81  A    between atoms: _205  and  _207
REMARK   82  A    between atoms: _207  and  _208
REMARK   83  A    between atoms: _207  and  _210
REMARK   84  A    between atoms: _210  and  _211
REMARK   85  A    between atoms: _217  and  _219
REMARK   86  A    between atoms: _219  and  _220
REMARK   87  A    between atoms: _219  and  _222
REMARK   88  A    between atoms: _222  and  _223
REMARK   89  A    between atoms: _226  and  _228
REMARK   90  A    between atoms: _228  and  _229
REMARK   91  A    between atoms: _228  and  _231
REMARK   92  A    between atoms: _231  and  _232
REMARK   93  A    between atoms: _235  and  _237
REMARK   94  A    between atoms: _237  and  _238
REMARK   95  A    between atoms: _237  and  _240
REMARK   96  A    between atoms: _243  and  _245
REMARK   97  A    between atoms: _245  and  _246
REMARK   98  A    between atoms: _248  and  _250
REMARK   99  A    between atoms: _250  and  _251
REMARK  100  A    between atoms: _250  and  _253
REMARK  101  A    between atoms: _253  and  _254
REMARK  102  A    between atoms: _259  and  _261
REMARK  103  A    between atoms: _261  and  _262
REMARK  104  A    between atoms: _261  and  _264
REMARK  105  A    between atoms: _264  and  _265
REMARK  106  A    between atoms: _270  and  _271
REMARK  107  A    between atoms: _273  and  _275
REMARK  108  A    between atoms: _275  and  _276
REMARK  109  A    between atoms: _278  and  _280
REMARK  110  A    between atoms: _280  and  _281
REMARK  111  A    between atoms: _280  and  _283
REMARK  112  A    between atoms: _283  and  _284
REMARK  113  A    between atoms: _287  and  _289
REMARK  114  A    between atoms: _289  and  _290
REMARK  115  A    between atoms: _289  and  _292
REMARK  116  A    between atoms: _292  and  _293
REMARK  117  A    between atoms: _297  and  _298
REMARK  118  A    between atoms: _303  and  _305
REMARK  119  A    between atoms: _305  and  _306
REMARK  120  A    between atoms: _305  and  _308
REMARK  121  A    between atoms: _308  and  _309
REMARK  122  A    between atoms: _309  and  _310
REMARK  123  A    between atoms: _315  and  _317
REMARK  124  A    between atoms: _317  and  _318
REMARK  125  A    between atoms: _317  and  _320
REMARK  126  A    between atoms: _320  and  _321
REMARK  127  A    between atoms: _321  and  _322
REMARK  128  A    between atoms: _327  and  _329
REMARK  129  A    between atoms: _329  and  _330
REMARK  130  A    between atoms: _329  and  _332
REMARK  131  A    between atoms: _332  and  _333
REMARK  132  A    between atoms: _336  and  _338
REMARK  133  A    between atoms: _338  and  _339
REMARK  134  A    between atoms: _338  and  _341
REMARK  135  A    between atoms: _341  and  _342
REMARK  136  A    between atoms: _342  and  _343
REMARK  137  A    between atoms: _345  and  _347
REMARK  138  A    between atoms: _347  and  _348
REMARK  139  A    between atoms: _347  and  _350
REMARK  140  A    between atoms: _353  and  _355
REMARK  141  A    between atoms: _355  and  _356
REMARK  142  A    between atoms: _355  and  _358
REMARK  143  A    between atoms: _361  and  _363
REMARK  144  A    between atoms: _363  and  _364
REMARK  145  A    between atoms: _363  and  _366
REMARK  146  A    between atoms: _366  and  _367
REMARK  147  A    between atoms: _370  and  _372
REMARK  148  A    between atoms: _372  and  _373
REMARK  149  A    between atoms: _372  and  _375
REMARK  150  A    between atoms: _375  and  _376
REMARK  151  A    between atoms: _378  and  _380
REMARK  152  A    between atoms: _380  and  _381
REMARK  153  A    between atoms: _380  and  _383
REMARK  154  A    between atoms: _383  and  _384
REMARK  155  A    between atoms: _384  and  _494
REMARK  156  A    between atoms: _385  and  _387
REMARK  157  A    between atoms: _387  and  _388
REMARK  158  A    between atoms: _387  and  _390
REMARK  159  A    between atoms: _390  and  _391
REMARK  160  A    between atoms: _391  and  _392
REMARK  161  A    between atoms: _397  and  _399
REMARK  162  A    between atoms: _399  and  _400
REMARK  163  A    between atoms: _402  and  _404
REMARK  164  A    between atoms: _404  and  _405
REMARK  165  A    between atoms: _404  and  _407
REMARK  166  A    between atoms: _407  and  _408
REMARK  167  A    between atoms: _411  and  _413
REMARK  168  A    between atoms: _413  and  _414
REMARK  169  A    between atoms: _413  and  _416
REMARK  170  A    between atoms: _416  and  _417
REMARK  171  A    between atoms: _419  and  _421
REMARK  172  A    between atoms: _421  and  _422
REMARK  173  A    between atoms: _424  and  _426
REMARK  174  A    between atoms: _426  and  _427
REMARK  175  A    between atoms: _429  and  _431
REMARK  176  A    between atoms: _431  and  _432
REMARK  177  A    between atoms: _431  and  _434
REMARK  178  A    between atoms: _437  and  _439
REMARK  179  A    between atoms: _439  and  _440
REMARK  180  A    between atoms: _439  and  _442
REMARK  181  A    between atoms: _445  and  _447
REMARK  182  A    between atoms: _447  and  _448
REMARK  183  A    between atoms: _447  and  _450
REMARK  184  A    between atoms: _450  and  _451
REMARK  185  A    between atoms: _453  and  _455
REMARK  186  A    between atoms: _455  and  _456
REMARK  187  A    between atoms: _455  and  _458
REMARK  188  A    between atoms: _458  and  _459
REMARK  189  A    between atoms: _469  and  _471
REMARK  190  A    between atoms: _471  and  _472
REMARK  191  A    between atoms: _474  and  _476
REMARK  192  A    between atoms: _476  and  _477
REMARK  193  A    between atoms: _476  and  _479
REMARK  194  A    between atoms: _479  and  _480
REMARK  195  A    between atoms: _483  and  _485
REMARK  196  A    between atoms: _485  and  _486
REMARK  197  A    between atoms: _488  and  _490
REMARK  198  A    between atoms: _490  and  _491
REMARK  199  A    between atoms: _490  and  _493
REMARK  200  A    between atoms: _493  and  _494
REMARK  201  A    between atoms: _495  and  _497
REMARK  202  A    between atoms: _497  and  _498
REMARK  203  A    between atoms: _501  and  _503
REMARK  204  A    between atoms: _503  and  _504
REMARK  205  A    between atoms: _503  and  _506
REMARK  206  A    between atoms: _506  and  _507
REMARK  207  A    between atoms: _507  and  _508
REMARK  208  A    between atoms: _513  and  _515
REMARK  209  A    between atoms: _515  and  _516
REMARK  210  A    between atoms: _515  and  _518
REMARK  211  A    between atoms: _518  and  _519
REMARK  212  A    between atoms: _519  and  _520
REMARK  213  A    between atoms: _520  and  _521
REMARK  214  A    between atoms: _521  and  _522
REMARK  215  A    between atoms: _527  and  _528
REMARK  216  A    between atoms: _533  and  _535
REMARK  217  A    between atoms: _535  and  _536
REMARK  218  A    between atoms: _538  and  _540
REMARK  219  A    between atoms: _540  and  _541
REMARK  220  A    between atoms: _540  and  _543
REMARK  221  A    between atoms: _546  and  _548
REMARK  222  A    between atoms: _548  and  _549
REMARK  223  A    between atoms: _548  and  _551
REMARK  224  A    between atoms: _551  and  _552
REMARK  225  A    between atoms: _557  and  _558
REMARK                            x       y       z     vdW  Elec       q    Type
REMARK                         _______ _______ _______ _____ _____    ______ ____
ROOT
ATOM      1  O   HOH     1      21.821  52.289  25.296  0.00  0.00    +0.000 OA
ENDROOT
TORSDOF 0
REMARK  Name = ../refined-set-2016/4jz1/4jz1_pocket.pdb
REMARK  225 active torsions:
REMARK  status: ('A' for Active; 'I' for Inactive)
REMARK    1  A    between atoms: _1  and  _5
REMARK    2  A    between atoms: _5  and  _6
REMARK    3  A    between atoms: _5  and  _8
REMARK    4  A    between atoms: _11  and  _13
REMARK    5  A    between atoms: _13  and  _14
REMARK    6  A    between atoms: _13  and  _16
REMARK    7  A    between atoms: _19  and  _21
REMARK    8  A    between atoms: _21  and  _22
REMARK    9  A    between atoms: _21  and  _24
REMARK   10  A    between atoms: _24  and  _25
REMARK   11  A    between atoms: _25  and  _26
REMARK   12  A    between atoms: _31  and  _33
REMARK   13  A    between atoms: _33  and  _34
REMARK   14  A    between atoms: _33  and  _36
REMARK   15  A    between atoms: _36  and  _37
REMARK   16  A    between atoms: _42  and  _44
REMARK   17  A    between atoms: _44  and  _45
REMARK   18  A    between atoms: _44  and  _47
REMARK   19  A    between atoms: _47  and  _48
REMARK   20  A    between atoms: _51  and  _53
REMARK   21  A    between atoms: _53  and  _54
REMARK   22  A    between atoms: _53  and  _56
REMARK   23  A    between atoms: _56  and  _57
REMARK   24  A    between atoms: _57  and  _92
REMARK   25  A    between atoms: _58  and  _60
REMARK   26  A    between atoms: _60  and  _61
REMARK   27  A    between atoms: _63  and  _65
REMARK   28  A    between atoms: _65  and  _66
REMARK   29  A    between atoms: _69  and  _71
REMARK   30  A    between atoms: _71  and  _72
REMARK   31  A    between atoms: _75  and  _77
REMARK   32  A    between atoms: _77  and  _78
REMARK   33  A    between atoms: _77  and  _80
REMARK   34  A    between atoms: _80  and  _81
REMARK   35  A    between atoms: _86  and  _88
REMARK   36  A    between atoms: _88  and  _89
REMARK   37  A    between atoms: _88  and  _91
REMARK   38  A    between atoms: _91  and  _92
REMARK   39  A    between atoms: _93  and  _95
REMARK   40  A    between atoms: _95  and  _96
REMARK   41  A    between atoms: _95  and  _98
REMARK   42  A    between atoms: _98  and  _99
REMARK   43  A    between atoms: _104  and  _105
REMARK   44  A    between atoms: _107  and  _109
REMARK   45  A    between atoms: _109  and  _110
REMARK   46  A    between atoms: _109  and  _112
REMARK   47  A    between atoms: _112  and  _113
REMARK   48  A    between atoms: _116  and  _118
REMARK   49  A    between atoms: _118  and  _119
REMARK   50  A    between atoms: _118  and  _121
REMARK   51  A    between atoms: _121  and  _122
REMARK   52  A    between atoms: _125  and  _127
REMARK   53  A    between atoms: _127  and  _128
REMARK   54  A    between atoms: _127  and  _130
REMARK   55  A    between atoms: _130  and  _131
REMARK   56  A    between atoms: _134  and  _136
REMARK   57  A    between atoms: _136  and  _137
REMARK   58  A    between atoms: _136  and  _139
REMARK   59  A    between atoms: _139  and  _140
REMARK   60  A    between atoms: _145  and  _146
REMARK   61  A    between atoms: _148  and  _150
REMARK   62  A    between atoms: _150  and  _151
REMARK   63  A    between atoms: _150  and  _153
REMARK   64  A    between atoms: _153  and  _154
REMARK   65  A    between atoms: _164  and  _166
REMARK   66  A    between atoms: _166  and  _167
REMARK   67  A    between atoms: _166  and  _169
REMARK   68  A    between atoms: _169  and  _170
REMARK   69  A    between atoms: _175  and  _177
REMARK   70  A    between atoms: _177  and  _178
REMARK   71  A    between atoms: _177  and  _180
REMARK   72  A    between atoms: _180  and  _181
REMARK   73  A    between atoms: _184  and  _186
REMARK   74  A    between atoms: _186  and  _187
REMARK   75  A    between atoms: _186  and  _189
REMARK   76  A    between atoms: _189  and  _190
REMARK   77  A    between atoms: _196  and  _198
REMARK   78  A    between atoms: _198  and  _199
REMARK   79  A    between atoms: _198  and  _201
REMARK   80  A    between atoms: _201  and  _202
REMARK   81  A    between atoms: _205  and  _207
REMARK   82  A    between atoms: _207  and  _208
REMARK   83  A    between atoms: _207  and  _210
REMARK   84  A    between atoms: _210  and  _211
REMARK   85  A    between atoms: _217  and  _219
REMARK   86  A    between atoms: _219  and  _220
REMARK   87  A    between atoms: _219  and  _222
REMARK   88  A    between atoms: _222  and  _223
REMARK   89  A    between atoms: _226  and  _228
REMARK   90  A    between atoms: _228  and  _229
REMARK   91  A    between atoms: _228  and  _231
REMARK   92  A    between atoms: _231  and  _232
REMARK   93  A    between atoms: _235  and  _237
REMARK   94  A    between atoms: _237  and  _238
REMARK   95  A    between atoms: _237  and  _240
REMARK   96  A    between atoms: _243  and  _245
REMARK   97  A    between atoms: _245  and  _246
REMARK   98  A    between atoms: _248  and  _250
REMARK   99  A    between atoms: _250  and  _251
REMARK  100  A    between atoms: _250  and  _253
REMARK  101  A    between atoms: _253  and  _254
REMARK  102  A    between atoms: _259  and  _261
REMARK  103  A    between atoms: _261  and  _262
REMARK  104  A    between atoms: _261  and  _264
REMARK  105  A    between atoms: _264  and  _265
REMARK  106  A    between atoms: _270  and  _271
REMARK  107  A    between atoms: _273  and  _275
REMARK  108  A    between atoms: _275  and  _276
REMARK  109  A    between atoms: _278  and  _280
REMARK  110  A    between atoms: _280  and  _281
REMARK  111  A    between atoms: _280  and  _283
REMARK  112  A    between atoms: _283  and  _284
REMARK  113  A    between atoms: _287  and  _289
REMARK  114  A    between atoms: _289  and  _290
REMARK  115  A    between atoms: _289  and  _292
REMARK  116  A    between atoms: _292  and  _293
REMARK  117  A    between atoms: _297  and  _298
REMARK  118  A    between atoms: _303  and  _305
REMARK  119  A    between atoms: _305  and  _306
REMARK  120  A    between atoms: _305  and  _308
REMARK  121  A    between atoms: _308  and  _309
REMARK  122  A    between atoms: _309  and  _310
REMARK  123  A    between atoms: _315  and  _317
REMARK  124  A    between atoms: _317  and  _318
REMARK  125  A    between atoms: _317  and  _320
REMARK  126  A    between atoms: _320  and  _321
REMARK  127  A    between atoms: _321  and  _322
REMARK  128  A    between atoms: _327  and  _329
REMARK  129  A    between atoms: _329  and  _330
REMARK  130  A    between atoms: _329  and  _332
REMARK  131  A    between atoms: _332  and  _333
REMARK  132  A    between atoms: _336  and  _338
REMARK  133  A    between atoms: _338  and  _339
REMARK  134  A    between atoms: _338  and  _341
REMARK  135  A    between atoms: _341  and  _342
REMARK  136  A    between atoms: _342  and  _343
REMARK  137  A    between atoms: _345  and  _347
REMARK  138  A    between atoms: _347  and  _348
REMARK  139  A    between atoms: _347  and  _350
REMARK  140  A    between atoms: _353  and  _355
REMARK  141  A    between atoms: _355  and  _356
REMARK  142  A    between atoms: _355  and  _358
REMARK  143  A    between atoms: _361  and  _363
REMARK  144  A    between atoms: _363  and  _364
REMARK  145  A    between atoms: _363  and  _366
REMARK  146  A    between atoms: _366  and  _367
REMARK  147  A    between atoms: _370  and  _372
REMARK  148  A    between atoms: _372  and  _373
REMARK  149  A    between atoms: _372  and  _375
REMARK  150  A    between atoms: _375  and  _376
REMARK  151  A    between atoms: _378  and  _380
REMARK  152  A    between atoms: _380  and  _381
REMARK  153  A    between atoms: _380  and  _383
REMARK  154  A    between atoms: _383  and  _384
REMARK  155  A    between atoms: _384  and  _494
REMARK  156  A    between atoms: _385  and  _387
REMARK  157  A    between atoms: _387  and  _388
REMARK  158  A    between atoms: _387  and  _390
REMARK  159  A    between atoms: _390  and  _391
REMARK  160  A    between atoms: _391  and  _392
REMARK  161  A    between atoms: _397  and  _399
REMARK  162  A    between atoms: _399  and  _400
REMARK  163  A    between atoms: _402  and  _404
REMARK  164  A    between atoms: _404  and  _405
REMARK  165  A    between atoms: _404  and  _407
REMARK  166  A    between atoms: _407  and  _408
REMARK  167  A    between atoms: _411  and  _413
REMARK  168  A    between atoms: _413  and  _414
REMARK  169  A    between atoms: _413  and  _416
REMARK  170  A    between atoms: _416  and  _417
REMARK  171  A    between atoms: _419  and  _421
REMARK  172  A    between atoms: _421  and  _422
REMARK  173  A    between atoms: _424  and  _426
REMARK  174  A    between atoms: _426  and  _427
REMARK  175  A    between atoms: _429  and  _431
REMARK  176  A    between atoms: _431  and  _432
REMARK  177  A    between atoms: _431  and  _434
REMARK  178  A    between atoms: _437  and  _439
REMARK  179  A    between atoms: _439  and  _440
REMARK  180  A    between atoms: _439  and  _442
REMARK  181  A    between atoms: _445  and  _447
REMARK  182  A    between atoms: _447  and  _448
REMARK  183  A    between atoms: _447  and  _450
REMARK  184  A    between atoms: _450  and  _451
REMARK  185  A    between atoms: _453  and  _455
REMARK  186  A    between atoms: _455  and  _456
REMARK  187  A    between atoms: _455  and  _458
REMARK  188  A    between atoms: _458  and  _459
REMARK  189  A    between atoms: _469  and  _471
REMARK  190  A    between atoms: _471  and  _472
REMARK  191  A    between atoms: _474  and  _476
REMARK  192  A    between atoms: _476  and  _477
REMARK  193  A    between atoms: _476  and  _479
REMARK  194  A    between atoms: _479  and  _480
REMARK  195  A    between atoms: _483  and  _485
REMARK  196  A    between atoms: _485  and  _486
REMARK  197  A    between atoms: _488  and  _490
REMARK  198  A    between atoms: _490  and  _491
REMARK  199  A    between atoms: _490  and  _493
REMARK  200  A    between atoms: _493  and  _494
REMARK  201  A    between atoms: _495  and  _497
REMARK  202  A    between atoms: _497  and  _498
REMARK  203  A    between atoms: _501  and  _503
REMARK  204  A    between atoms: _503  and  _504
REMARK  205  A    between atoms: _503  and  _506
REMARK  206  A    between atoms: _506  and  _507
REMARK  207  A    between atoms: _507  and  _508
REMARK  208  A    between atoms: _513  and  _515
REMARK  209  A    between atoms: _515  and  _516
REMARK  210  A    between atoms: _515  and  _518
REMARK  211  A    between atoms: _518  and  _519
REMARK  212  A    between atoms: _519  and  _520
REMARK  213  A    between atoms: _520  and  _521
REMARK  214  A    between atoms: _521  and  _522
REMARK  215  A    between atoms: _527  and  _528
REMARK  216  A    between atoms: _533  and  _535
REMARK  217  A    between atoms: _535  and  _536
REMARK  218  A    between atoms: _538  and  _540
REMARK  219  A    between atoms: _540  and  _541
REMARK  220  A    between atoms: _540  and  _543
REMARK  221  A    between atoms: _546  and  _548
REMARK  222  A    between atoms: _548  and  _549
REMARK  223  A    between atoms: _548  and  _551
REMARK  224  A    between atoms: _551  and  _552
REMARK  225  A    between atoms: _557  and  _558
REMARK                            x       y       z     vdW  Elec       q    Type
REMARK                         _______ _______ _______ _____ _____    ______ ____
ROOT
ATOM      1  O   HOH     1      23.826  65.623  25.726  0.00  0.00    +0.000 OA
ENDROOT
TORSDOF 0
REMARK  Name = ../refined-set-2016/4jz1/4jz1_pocket.pdb
REMARK  225 active torsions:
REMARK  status: ('A' for Active; 'I' for Inactive)
REMARK    1  A    between atoms: _1  and  _5
REMARK    2  A    between atoms: _5  and  _6
REMARK    3  A    between atoms: _5  and  _8
REMARK    4  A    between atoms: _11  and  _13
REMARK    5  A    between atoms: _13  and  _14
REMARK    6  A    between atoms: _13  and  _16
REMARK    7  A    between atoms: _19  and  _21
REMARK    8  A    between atoms: _21  and  _22
REMARK    9  A    between atoms: _21  and  _24
REMARK   10  A    between atoms: _24  and  _25
REMARK   11  A    between atoms: _25  and  _26
REMARK   12  A    between atoms: _31  and  _33
REMARK   13  A    between atoms: _33  and  _34
REMARK   14  A    between atoms: _33  and  _36
REMARK   15  A    between atoms: _36  and  _37
REMARK   16  A    between atoms: _42  and  _44
REMARK   17  A    between atoms: _44  and  _45
REMARK   18  A    between atoms: _44  and  _47
REMARK   19  A    between atoms: _47  and  _48
REMARK   20  A    between atoms: _51  and  _53
REMARK   21  A    between atoms: _53  and  _54
REMARK   22  A    between atoms: _53  and  _56
REMARK   23  A    between atoms: _56  and  _57
REMARK   24  A    between atoms: _57  and  _92
REMARK   25  A    between atoms: _58  and  _60
REMARK   26  A    between atoms: _60  and  _61
REMARK   27  A    between atoms: _63  and  _65
REMARK   28  A    between atoms: _65  and  _66
REMARK   29  A    between atoms: _69  and  _71
REMARK   30  A    between atoms: _71  and  _72
REMARK   31  A    between atoms: _75  and  _77
REMARK   32  A    between atoms: _77  and  _78
REMARK   33  A    between atoms: _77  and  _80
REMARK   34  A    between atoms: _80  and  _81
REMARK   35  A    between atoms: _86  and  _88
REMARK   36  A    between atoms: _88  and  _89
REMARK   37  A    between atoms: _88  and  _91
REMARK   38  A    between atoms: _91  and  _92
REMARK   39  A    between atoms: _93  and  _95
REMARK   40  A    between atoms: _95  and  _96
REMARK   41  A    between atoms: _95  and  _98
REMARK   42  A    between atoms: _98  and  _99
REMARK   43  A    between atoms: _104  and  _105
REMARK   44  A    between atoms: _107  and  _109
REMARK   45  A    between atoms: _109  and  _110
REMARK   46  A    between atoms: _109  and  _112
REMARK   47  A    between atoms: _112  and  _113
REMARK   48  A    between atoms: _116  and  _118
REMARK   49  A    between atoms: _118  and  _119
REMARK   50  A    between atoms: _118  and  _121
REMARK   51  A    between atoms: _121  and  _122
REMARK   52  A    between atoms: _125  and  _127
REMARK   53  A    between atoms: _127  and  _128
REMARK   54  A    between atoms: _127  and  _130
REMARK   55  A    between atoms: _130  and  _131
REMARK   56  A    between atoms: _134  and  _136
REMARK   57  A    between atoms: _136  and  _137
REMARK   58  A    between atoms: _136  and  _139
REMARK   59  A    between atoms: _139  and  _140
REMARK   60  A    between atoms: _145  and  _146
REMARK   61  A    between atoms: _148  and  _150
REMARK   62  A    between atoms: _150  and  _151
REMARK   63  A    between atoms: _150  and  _153
REMARK   64  A    between atoms: _153  and  _154
REMARK   65  A    between atoms: _164  and  _166
REMARK   66  A    between atoms: _166  and  _167
REMARK   67  A    between atoms: _166  and  _169
REMARK   68  A    between atoms: _169  and  _170
REMARK   69  A    between atoms: _175  and  _177
REMARK   70  A    between atoms: _177  and  _178
REMARK   71  A    between atoms: _177  and  _180
REMARK   72  A    between atoms: _180  and  _181
REMARK   73  A    between atoms: _184  and  _186
REMARK   74  A    between atoms: _186  and  _187
REMARK   75  A    between atoms: _186  and  _189
REMARK   76  A    between atoms: _189  and  _190
REMARK   77  A    between atoms: _196  and  _198
REMARK   78  A    between atoms: _198  and  _199
REMARK   79  A    between atoms: _198  and  _201
REMARK   80  A    between atoms: _201  and  _202
REMARK   81  A    between atoms: _205  and  _207
REMARK   82  A    between atoms: _207  and  _208
REMARK   83  A    between atoms: _207  and  _210
REMARK   84  A    between atoms: _210  and  _211
REMARK   85  A    between atoms: _217  and  _219
REMARK   86  A    between atoms: _219  and  _220
REMARK   87  A    between atoms: _219  and  _222
REMARK   88  A    between atoms: _222  and  _223
REMARK   89  A    between atoms: _226  and  _228
REMARK   90  A    between atoms: _228  and  _229
REMARK   91  A    between atoms: _228  and  _231
REMARK   92  A    between atoms: _231  and  _232
REMARK   93  A    between atoms: _235  and  _237
REMARK   94  A    between atoms: _237  and  _238
REMARK   95  A    between atoms: _237  and  _240
REMARK   96  A    between atoms: _243  and  _245
REMARK   97  A    between atoms: _245  and  _246
REMARK   98  A    between atoms: _248  and  _250
REMARK   99  A    between atoms: _250  and  _251
REMARK  100  A    between atoms: _250  and  _253
REMARK  101  A    between atoms: _253  and  _254
REMARK  102  A    between atoms: _259  and  _261
REMARK  103  A    between atoms: _261  and  _262
REMARK  104  A    between atoms: _261  and  _264
REMARK  105  A    between atoms: _264  and  _265
REMARK  106  A    between atoms: _270  and  _271
REMARK  107  A    between atoms: _273  and  _275
REMARK  108  A    between atoms: _275  and  _276
REMARK  109  A    between atoms: _278  and  _280
REMARK  110  A    between atoms: _280  and  _281
REMARK  111  A    between atoms: _280  and  _283
REMARK  112  A    between atoms: _283  and  _284
REMARK  113  A    between atoms: _287  and  _289
REMARK  114  A    between atoms: _289  and  _290
REMARK  115  A    between atoms: _289  and  _292
REMARK  116  A    between atoms: _292  and  _293
REMARK  117  A    between atoms: _297  and  _298
REMARK  118  A    between atoms: _303  and  _305
REMARK  119  A    between atoms: _305  and  _306
REMARK  120  A    between atoms: _305  and  _308
REMARK  121  A    between atoms: _308  and  _309
REMARK  122  A    between atoms: _309  and  _310
REMARK  123  A    between atoms: _315  and  _317
REMARK  124  A    between atoms: _317  and  _318
REMARK  125  A    between atoms: _317  and  _320
REMARK  126  A    between atoms: _320  and  _321
REMARK  127  A    between atoms: _321  and  _322
REMARK  128  A    between atoms: _327  and  _329
REMARK  129  A    between atoms: _329  and  _330
REMARK  130  A    between atoms: _329  and  _332
REMARK  131  A    between atoms: _332  and  _333
REMARK  132  A    between atoms: _336  and  _338
REMARK  133  A    between atoms: _338  and  _339
REMARK  134  A    between atoms: _338  and  _341
REMARK  135  A    between atoms: _341  and  _342
REMARK  136  A    between atoms: _342  and  _343
REMARK  137  A    between atoms: _345  and  _347
REMARK  138  A    between atoms: _347  and  _348
REMARK  139  A    between atoms: _347  and  _350
REMARK  140  A    between atoms: _353  and  _355
REMARK  141  A    between atoms: _355  and  _356
REMARK  142  A    between atoms: _355  and  _358
REMARK  143  A    between atoms: _361  and  _363
REMARK  144  A    between atoms: _363  and  _364
REMARK  145  A    between atoms: _363  and  _366
REMARK  146  A    between atoms: _366  and  _367
REMARK  147  A    between atoms: _370  and  _372
REMARK  148  A    between atoms: _372  and  _373
REMARK  149  A    between atoms: _372  and  _375
REMARK  150  A    between atoms: _375  and  _376
REMARK  151  A    between atoms: _378  and  _380
REMARK  152  A    between atoms: _380  and  _381
REMARK  153  A    between atoms: _380  and  _383
REMARK  154  A    between atoms: _383  and  _384
REMARK  155  A    between atoms: _384  and  _494
REMARK  156  A    between atoms: _385  and  _387
REMARK  157  A    between atoms: _387  and  _388
REMARK  158  A    between atoms: _387  and  _390
REMARK  159  A    between atoms: _390  and  _391
REMARK  160  A    between atoms: _391  and  _392
REMARK  161  A    between atoms: _397  and  _399
REMARK  162  A    between atoms: _399  and  _400
REMARK  163  A    between atoms: _402  and  _404
REMARK  164  A    between atoms: _404  and  _405
REMARK  165  A    between atoms: _404  and  _407
REMARK  166  A    between atoms: _407  and  _408
REMARK  167  A    between atoms: _411  and  _413
REMARK  168  A    between atoms: _413  and  _414
REMARK  169  A    between atoms: _413  and  _416
REMARK  170  A    between atoms: _416  and  _417
REMARK  171  A    between atoms: _419  and  _421
REMARK  172  A    between atoms: _421  and  _422
REMARK  173  A    between atoms: _424  and  _426
REMARK  174  A    between atoms: _426  and  _427
REMARK  175  A    between atoms: _429  and  _431
REMARK  176  A    between atoms: _431  and  _432
REMARK  177  A    between atoms: _431  and  _434
REMARK  178  A    between atoms: _437  and  _439
REMARK  179  A    between atoms: _439  and  _440
REMARK  180  A    between atoms: _439  and  _442
REMARK  181  A    between atoms: _445  and  _447
REMARK  182  A    between atoms: _447  and  _448
REMARK  183  A    between atoms: _447  and  _450
REMARK  184  A    between atoms: _450  and  _451
REMARK  185  A    between atoms: _453  and  _455
REMARK  186  A    between atoms: _455  and  _456
REMARK  187  A    between atoms: _455  and  _458
REMARK  188  A    between atoms: _458  and  _459
REMARK  189  A    between atoms: _469  and  _471
REMARK  190  A    between atoms: _471  and  _472
REMARK  191  A    between atoms: _474  and  _476
REMARK  192  A    between atoms: _476  and  _477
REMARK  193  A    between atoms: _476  and  _479
REMARK  194  A    between atoms: _479  and  _480
REMARK  195  A    between atoms: _483  and  _485
REMARK  196  A    between atoms: _485  and  _486
REMARK  197  A    between atoms: _488  and  _490
REMARK  198  A    between atoms: _490  and  _491
REMARK  199  A    between atoms: _490  and  _493
REMARK  200  A    between atoms: _493  and  _494
REMARK  201  A    between atoms: _495  and  _497
REMARK  202  A    between atoms: _497  and  _498
REMARK  203  A    between atoms: _501  and  _503
REMARK  204  A    between atoms: _503  and  _504
REMARK  205  A    between atoms: _503  and  _506
REMARK  206  A    between atoms: _506  and  _507
REMARK  207  A    between atoms: _507  and  _508
REMARK  208  A    between atoms: _513  and  _515
REMARK  209  A    between atoms: _515  and  _516
REMARK  210  A    between atoms: _515  and  _518
REMARK  211  A    between atoms: _518  and  _519
REMARK  212  A    between atoms: _519  and  _520
REMARK  213  A    between atoms: _520  and  _521
REMARK  214  A    between atoms: _521  and  _522
REMARK  215  A    between atoms: _527  and  _528
REMARK  216  A    between atoms: _533  and  _535
REMARK  217  A    between atoms: _535  and  _536
REMARK  218  A    between atoms: _538  and  _540
REMARK  219  A    between atoms: _540  and  _541
REMARK  220  A    between atoms: _540  and  _543
REMARK  221  A    between atoms: _546  and  _548
REMARK  222  A    between atoms: _548  and  _549
REMARK  223  A    between atoms: _548  and  _551
REMARK  224  A    between atoms: _551  and  _552
REMARK  225  A    between atoms: _557  and  _558
REMARK                            x       y       z     vdW  Elec       q    Type
REMARK                         _______ _______ _______ _____ _____    ______ ____
ROOT
ATOM      1  O   HOH     1      22.368  57.736  31.028  0.00  0.00    +0.000 OA
ENDROOT
TORSDOF 0
REMARK  Name = ../refined-set-2016/4jz1/4jz1_pocket.pdb
REMARK  225 active torsions:
REMARK  status: ('A' for Active; 'I' for Inactive)
REMARK    1  A    between atoms: _1  and  _5
REMARK    2  A    between atoms: _5  and  _6
REMARK    3  A    between atoms: _5  and  _8
REMARK    4  A    between atoms: _11  and  _13
REMARK    5  A    between atoms: _13  and  _14
REMARK    6  A    between atoms: _13  and  _16
REMARK    7  A    between atoms: _19  and  _21
REMARK    8  A    between atoms: _21  and  _22
REMARK    9  A    between atoms: _21  and  _24
REMARK   10  A    between atoms: _24  and  _25
REMARK   11  A    between atoms: _25  and  _26
REMARK   12  A    between atoms: _31  and  _33
REMARK   13  A    between atoms: _33  and  _34
REMARK   14  A    between atoms: _33  and  _36
REMARK   15  A    between atoms: _36  and  _37
REMARK   16  A    between atoms: _42  and  _44
REMARK   17  A    between atoms: _44  and  _45
REMARK   18  A    between atoms: _44  and  _47
REMARK   19  A    between atoms: _47  and  _48
REMARK   20  A    between atoms: _51  and  _53
REMARK   21  A    between atoms: _53  and  _54
REMARK   22  A    between atoms: _53  and  _56
REMARK   23  A    between atoms: _56  and  _57
REMARK   24  A    between atoms: _57  and  _92
REMARK   25  A    between atoms: _58  and  _60
REMARK   26  A    between atoms: _60  and  _61
REMARK   27  A    between atoms: _63  and  _65
REMARK   28  A    between atoms: _65  and  _66
REMARK   29  A    between atoms: _69  and  _71
REMARK   30  A    between atoms: _71  and  _72
REMARK   31  A    between atoms: _75  and  _77
REMARK   32  A    between atoms: _77  and  _78
REMARK   33  A    between atoms: _77  and  _80
REMARK   34  A    between atoms: _80  and  _81
REMARK   35  A    between atoms: _86  and  _88
REMARK   36  A    between atoms: _88  and  _89
REMARK   37  A    between atoms: _88  and  _91
REMARK   38  A    between atoms: _91  and  _92
REMARK   39  A    between atoms: _93  and  _95
REMARK   40  A    between atoms: _95  and  _96
REMARK   41  A    between atoms: _95  and  _98
REMARK   42  A    between atoms: _98  and  _99
REMARK   43  A    between atoms: _104  and  _105
REMARK   44  A    between atoms: _107  and  _109
REMARK   45  A    between atoms: _109  and  _110
REMARK   46  A    between atoms: _109  and  _112
REMARK   47  A    between atoms: _112  and  _113
REMARK   48  A    between atoms: _116  and  _118
REMARK   49  A    between atoms: _118  and  _119
REMARK   50  A    between atoms: _118  and  _121
REMARK   51  A    between atoms: _121  and  _122
REMARK   52  A    between atoms: _125  and  _127
REMARK   53  A    between atoms: _127  and  _128
REMARK   54  A    between atoms: _127  and  _130
REMARK   55  A    between atoms: _130  and  _131
REMARK   56  A    between atoms: _134  and  _136
REMARK   57  A    between atoms: _136  and  _137
REMARK   58  A    between atoms: _136  and  _139
REMARK   59  A    between atoms: _139  and  _140
REMARK   60  A    between atoms: _145  and  _146
REMARK   61  A    between atoms: _148  and  _150
REMARK   62  A    between atoms: _150  and  _151
REMARK   63  A    between atoms: _150  and  _153
REMARK   64  A    between atoms: _153  and  _154
REMARK   65  A    between atoms: _164  and  _166
REMARK   66  A    between atoms: _166  and  _167
REMARK   67  A    between atoms: _166  and  _169
REMARK   68  A    between atoms: _169  and  _170
REMARK   69  A    between atoms: _175  and  _177
REMARK   70  A    between atoms: _177  and  _178
REMARK   71  A    between atoms: _177  and  _180
REMARK   72  A    between atoms: _180  and  _181
REMARK   73  A    between atoms: _184  and  _186
REMARK   74  A    between atoms: _186  and  _187
REMARK   75  A    between atoms: _186  and  _189
REMARK   76  A    between atoms: _189  and  _190
REMARK   77  A    between atoms: _196  and  _198
REMARK   78  A    between atoms: _198  and  _199
REMARK   79  A    between atoms: _198  and  _201
REMARK   80  A    between atoms: _201  and  _202
REMARK   81  A    between atoms: _205  and  _207
REMARK   82  A    between atoms: _207  and  _208
REMARK   83  A    between atoms: _207  and  _210
REMARK   84  A    between atoms: _210  and  _211
REMARK   85  A    between atoms: _217  and  _219
REMARK   86  A    between atoms: _219  and  _220
REMARK   87  A    between atoms: _219  and  _222
REMARK   88  A    between atoms: _222  and  _223
REMARK   89  A    between atoms: _226  and  _228
REMARK   90  A    between atoms: _228  and  _229
REMARK   91  A    between atoms: _228  and  _231
REMARK   92  A    between atoms: _231  and  _232
REMARK   93  A    between atoms: _235  and  _237
REMARK   94  A    between atoms: _237  and  _238
REMARK   95  A    between atoms: _237  and  _240
REMARK   96  A    between atoms: _243  and  _245
REMARK   97  A    between atoms: _245  and  _246
REMARK   98  A    between atoms: _248  and  _250
REMARK   99  A    between atoms: _250  and  _251
REMARK  100  A    between atoms: _250  and  _253
REMARK  101  A    between atoms: _253  and  _254
REMARK  102  A    between atoms: _259  and  _261
REMARK  103  A    between atoms: _261  and  _262
REMARK  104  A    between atoms: _261  and  _264
REMARK  105  A    between atoms: _264  and  _265
REMARK  106  A    between atoms: _270  and  _271
REMARK  107  A    between atoms: _273  and  _275
REMARK  108  A    between atoms: _275  and  _276
REMARK  109  A    between atoms: _278  and  _280
REMARK  110  A    between atoms: _280  and  _281
REMARK  111  A    between atoms: _280  and  _283
REMARK  112  A    between atoms: _283  and  _284
REMARK  113  A    between atoms: _287  and  _289
REMARK  114  A    between atoms: _289  and  _290
REMARK  115  A    between atoms: _289  and  _292
REMARK  116  A    between atoms: _292  and  _293
REMARK  117  A    between atoms: _297  and  _298
REMARK  118  A    between atoms: _303  and  _305
REMARK  119  A    between atoms: _305  and  _306
REMARK  120  A    between atoms: _305  and  _308
REMARK  121  A    between atoms: _308  and  _309
REMARK  122  A    between atoms: _309  and  _310
REMARK  123  A    between atoms: _315  and  _317
REMARK  124  A    between atoms: _317  and  _318
REMARK  125  A    between atoms: _317  and  _320
REMARK  126  A    between atoms: _320  and  _321
REMARK  127  A    between atoms: _321  and  _322
REMARK  128  A    between atoms: _327  and  _329
REMARK  129  A    between atoms: _329  and  _330
REMARK  130  A    between atoms: _329  and  _332
REMARK  131  A    between atoms: _332  and  _333
REMARK  132  A    between atoms: _336  and  _338
REMARK  133  A    between atoms: _338  and  _339
REMARK  134  A    between atoms: _338  and  _341
REMARK  135  A    between atoms: _341  and  _342
REMARK  136  A    between atoms: _342  and  _343
REMARK  137  A    between atoms: _345  and  _347
REMARK  138  A    between atoms: _347  and  _348
REMARK  139  A    between atoms: _347  and  _350
REMARK  140  A    between atoms: _353  and  _355
REMARK  141  A    between atoms: _355  and  _356
REMARK  142  A    between atoms: _355  and  _358
REMARK  143  A    between atoms: _361  and  _363
REMARK  144  A    between atoms: _363  and  _364
REMARK  145  A    between atoms: _363  and  _366
REMARK  146  A    between atoms: _366  and  _367
REMARK  147  A    between atoms: _370  and  _372
REMARK  148  A    between atoms: _372  and  _373
REMARK  149  A    between atoms: _372  and  _375
REMARK  150  A    between atoms: _375  and  _376
REMARK  151  A    between atoms: _378  and  _380
REMARK  152  A    between atoms: _380  and  _381
REMARK  153  A    between atoms: _380  and  _383
REMARK  154  A    between atoms: _383  and  _384
REMARK  155  A    between atoms: _384  and  _494
REMARK  156  A    between atoms: _385  and  _387
REMARK  157  A    between atoms: _387  and  _388
REMARK  158  A    between atoms: _387  and  _390
REMARK  159  A    between atoms: _390  and  _391
REMARK  160  A    between atoms: _391  and  _392
REMARK  161  A    between atoms: _397  and  _399
REMARK  162  A    between atoms: _399  and  _400
REMARK  163  A    between atoms: _402  and  _404
REMARK  164  A    between atoms: _404  and  _405
REMARK  165  A    between atoms: _404  and  _407
REMARK  166  A    between atoms: _407  and  _408
REMARK  167  A    between atoms: _411  and  _413
REMARK  168  A    between atoms: _413  and  _414
REMARK  169  A    between atoms: _413  and  _416
REMARK  170  A    between atoms: _416  and  _417
REMARK  171  A    between atoms: _419  and  _421
REMARK  172  A    between atoms: _421  and  _422
REMARK  173  A    between atoms: _424  and  _426
REMARK  174  A    between atoms: _426  and  _427
REMARK  175  A    between atoms: _429  and  _431
REMARK  176  A    between atoms: _431  and  _432
REMARK  177  A    between atoms: _431  and  _434
REMARK  178  A    between atoms: _437  and  _439
REMARK  179  A    between atoms: _439  and  _440
REMARK  180  A    between atoms: _439  and  _442
REMARK  181  A    between atoms: _445  and  _447
REMARK  182  A    between atoms: _447  and  _448
REMARK  183  A    between atoms: _447  and  _450
REMARK  184  A    between atoms: _450  and  _451
REMARK  185  A    between atoms: _453  and  _455
REMARK  186  A    between atoms: _455  and  _456
REMARK  187  A    between atoms: _455  and  _458
REMARK  188  A    between atoms: _458  and  _459
REMARK  189  A    between atoms: _469  and  _471
REMARK  190  A    between atoms: _471  and  _472
REMARK  191  A    between atoms: _474  and  _476
REMARK  192  A    between atoms: _476  and  _477
REMARK  193  A    between atoms: _476  and  _479
REMARK  194  A    between atoms: _479  and  _480
REMARK  195  A    between atoms: _483  and  _485
REMARK  196  A    between atoms: _485  and  _486
REMARK  197  A    between atoms: _488  and  _490
REMARK  198  A    between atoms: _490  and  _491
REMARK  199  A    between atoms: _490  and  _493
REMARK  200  A    between atoms: _493  and  _494
REMARK  201  A    between atoms: _495  and  _497
REMARK  202  A    between atoms: _497  and  _498
REMARK  203  A    between atoms: _501  and  _503
REMARK  204  A    between atoms: _503  and  _504
REMARK  205  A    between atoms: _503  and  _506
REMARK  206  A    between atoms: _506  and  _507
REMARK  207  A    between atoms: _507  and  _508
REMARK  208  A    between atoms: _513  and  _515
REMARK  209  A    between atoms: _515  and  _516
REMARK  210  A    between atoms: _515  and  _518
REMARK  211  A    between atoms: _518  and  _519
REMARK  212  A    between atoms: _519  and  _520
REMARK  213  A    between atoms: _520  and  _521
REMARK  214  A    between atoms: _521  and  _522
REMARK  215  A    between atoms: _527  and  _528
REMARK  216  A    between atoms: _533  and  _535
REMARK  217  A    between atoms: _535  and  _536
REMARK  218  A    between atoms: _538  and  _540
REMARK  219  A    between atoms: _540  and  _541
REMARK  220  A    between atoms: _540  and  _543
REMARK  221  A    between atoms: _546  and  _548
REMARK  222  A    between atoms: _548  and  _549
REMARK  223  A    between atoms: _548  and  _551
REMARK  224  A    between atoms: _551  and  _552
REMARK  225  A    between atoms: _557  and  _558
REMARK                            x       y       z     vdW  Elec       q    Type
REMARK                         _______ _______ _______ _____ _____    ______ ____
ROOT
ATOM      1  O   HOH     1       8.433  58.343  30.412  0.00  0.00    +0.000 OA
ENDROOT
TORSDOF 0
REMARK  Name = ../refined-set-2016/4jz1/4jz1_pocket.pdb
REMARK  225 active torsions:
REMARK  status: ('A' for Active; 'I' for Inactive)
REMARK    1  A    between atoms: _1  and  _5
REMARK    2  A    between atoms: _5  and  _6
REMARK    3  A    between atoms: _5  and  _8
REMARK    4  A    between atoms: _11  and  _13
REMARK    5  A    between atoms: _13  and  _14
REMARK    6  A    between atoms: _13  and  _16
REMARK    7  A    between atoms: _19  and  _21
REMARK    8  A    between atoms: _21  and  _22
REMARK    9  A    between atoms: _21  and  _24
REMARK   10  A    between atoms: _24  and  _25
REMARK   11  A    between atoms: _25  and  _26
REMARK   12  A    between atoms: _31  and  _33
REMARK   13  A    between atoms: _33  and  _34
REMARK   14  A    between atoms: _33  and  _36
REMARK   15  A    between atoms: _36  and  _37
REMARK   16  A    between atoms: _42  and  _44
REMARK   17  A    between atoms: _44  and  _45
REMARK   18  A    between atoms: _44  and  _47
REMARK   19  A    between atoms: _47  and  _48
REMARK   20  A    between atoms: _51  and  _53
REMARK   21  A    between atoms: _53  and  _54
REMARK   22  A    between atoms: _53  and  _56
REMARK   23  A    between atoms: _56  and  _57
REMARK   24  A    between atoms: _57  and  _92
REMARK   25  A    between atoms: _58  and  _60
REMARK   26  A    between atoms: _60  and  _61
REMARK   27  A    between atoms: _63  and  _65
REMARK   28  A    between atoms: _65  and  _66
REMARK   29  A    between atoms: _69  and  _71
REMARK   30  A    between atoms: _71  and  _72
REMARK   31  A    between atoms: _75  and  _77
REMARK   32  A    between atoms: _77  and  _78
REMARK   33  A    between atoms: _77  and  _80
REMARK   34  A    between atoms: _80  and  _81
REMARK   35  A    between atoms: _86  and  _88
REMARK   36  A    between atoms: _88  and  _89
REMARK   37  A    between atoms: _88  and  _91
REMARK   38  A    between atoms: _91  and  _92
REMARK   39  A    between atoms: _93  and  _95
REMARK   40  A    between atoms: _95  and  _96
REMARK   41  A    between atoms: _95  and  _98
REMARK   42  A    between atoms: _98  and  _99
REMARK   43  A    between atoms: _104  and  _105
REMARK   44  A    between atoms: _107  and  _109
REMARK   45  A    between atoms: _109  and  _110
REMARK   46  A    between atoms: _109  and  _112
REMARK   47  A    between atoms: _112  and  _113
REMARK   48  A    between atoms: _116  and  _118
REMARK   49  A    between atoms: _118  and  _119
REMARK   50  A    between atoms: _118  and  _121
REMARK   51  A    between atoms: _121  and  _122
REMARK   52  A    between atoms: _125  and  _127
REMARK   53  A    between atoms: _127  and  _128
REMARK   54  A    between atoms: _127  and  _130
REMARK   55  A    between atoms: _130  and  _131
REMARK   56  A    between atoms: _134  and  _136
REMARK   57  A    between atoms: _136  and  _137
REMARK   58  A    between atoms: _136  and  _139
REMARK   59  A    between atoms: _139  and  _140
REMARK   60  A    between atoms: _145  and  _146
REMARK   61  A    between atoms: _148  and  _150
REMARK   62  A    between atoms: _150  and  _151
REMARK   63  A    between atoms: _150  and  _153
REMARK   64  A    between atoms: _153  and  _154
REMARK   65  A    between atoms: _164  and  _166
REMARK   66  A    between atoms: _166  and  _167
REMARK   67  A    between atoms: _166  and  _169
REMARK   68  A    between atoms: _169  and  _170
REMARK   69  A    between atoms: _175  and  _177
REMARK   70  A    between atoms: _177  and  _178
REMARK   71  A    between atoms: _177  and  _180
REMARK   72  A    between atoms: _180  and  _181
REMARK   73  A    between atoms: _184  and  _186
REMARK   74  A    between atoms: _186  and  _187
REMARK   75  A    between atoms: _186  and  _189
REMARK   76  A    between atoms: _189  and  _190
REMARK   77  A    between atoms: _196  and  _198
REMARK   78  A    between atoms: _198  and  _199
REMARK   79  A    between atoms: _198  and  _201
REMARK   80  A    between atoms: _201  and  _202
REMARK   81  A    between atoms: _205  and  _207
REMARK   82  A    between atoms: _207  and  _208
REMARK   83  A    between atoms: _207  and  _210
REMARK   84  A    between atoms: _210  and  _211
REMARK   85  A    between atoms: _217  and  _219
REMARK   86  A    between atoms: _219  and  _220
REMARK   87  A    between atoms: _219  and  _222
REMARK   88  A    between atoms: _222  and  _223
REMARK   89  A    between atoms: _226  and  _228
REMARK   90  A    between atoms: _228  and  _229
REMARK   91  A    between atoms: _228  and  _231
REMARK   92  A    between atoms: _231  and  _232
REMARK   93  A    between atoms: _235  and  _237
REMARK   94  A    between atoms: _237  and  _238
REMARK   95  A    between atoms: _237  and  _240
REMARK   96  A    between atoms: _243  and  _245
REMARK   97  A    between atoms: _245  and  _246
REMARK   98  A    between atoms: _248  and  _250
REMARK   99  A    between atoms: _250  and  _251
REMARK  100  A    between atoms: _250  and  _253
REMARK  101  A    between atoms: _253  and  _254
REMARK  102  A    between atoms: _259  and  _261
REMARK  103  A    between atoms: _261  and  _262
REMARK  104  A    between atoms: _261  and  _264
REMARK  105  A    between atoms: _264  and  _265
REMARK  106  A    between atoms: _270  and  _271
REMARK  107  A    between atoms: _273  and  _275
REMARK  108  A    between atoms: _275  and  _276
REMARK  109  A    between atoms: _278  and  _280
REMARK  110  A    between atoms: _280  and  _281
REMARK  111  A    between atoms: _280  and  _283
REMARK  112  A    between atoms: _283  and  _284
REMARK  113  A    between atoms: _287  and  _289
REMARK  114  A    between atoms: _289  and  _290
REMARK  115  A    between atoms: _289  and  _292
REMARK  116  A    between atoms: _292  and  _293
REMARK  117  A    between atoms: _297  and  _298
REMARK  118  A    between atoms: _303  and  _305
REMARK  119  A    between atoms: _305  and  _306
REMARK  120  A    between atoms: _305  and  _308
REMARK  121  A    between atoms: _308  and  _309
REMARK  122  A    between atoms: _309  and  _310
REMARK  123  A    between atoms: _315  and  _317
REMARK  124  A    between atoms: _317  and  _318
REMARK  125  A    between atoms: _317  and  _320
REMARK  126  A    between atoms: _320  and  _321
REMARK  127  A    between atoms: _321  and  _322
REMARK  128  A    between atoms: _327  and  _329
REMARK  129  A    between atoms: _329  and  _330
REMARK  130  A    between atoms: _329  and  _332
REMARK  131  A    between atoms: _332  and  _333
REMARK  132  A    between atoms: _336  and  _338
REMARK  133  A    between atoms: _338  and  _339
REMARK  134  A    between atoms: _338  and  _341
REMARK  135  A    between atoms: _341  and  _342
REMARK  136  A    between atoms: _342  and  _343
REMARK  137  A    between atoms: _345  and  _347
REMARK  138  A    between atoms: _347  and  _348
REMARK  139  A    between atoms: _347  and  _350
REMARK  140  A    between atoms: _353  and  _355
REMARK  141  A    between atoms: _355  and  _356
REMARK  142  A    between atoms: _355  and  _358
REMARK  143  A    between atoms: _361  and  _363
REMARK  144  A    between atoms: _363  and  _364
REMARK  145  A    between atoms: _363  and  _366
REMARK  146  A    between atoms: _366  and  _367
REMARK  147  A    between atoms: _370  and  _372
REMARK  148  A    between atoms: _372  and  _373
REMARK  149  A    between atoms: _372  and  _375
REMARK  150  A    between atoms: _375  and  _376
REMARK  151  A    between atoms: _378  and  _380
REMARK  152  A    between atoms: _380  and  _381
REMARK  153  A    between atoms: _380  and  _383
REMARK  154  A    between atoms: _383  and  _384
REMARK  155  A    between atoms: _384  and  _494
REMARK  156  A    between atoms: _385  and  _387
REMARK  157  A    between atoms: _387  and  _388
REMARK  158  A    between atoms: _387  and  _390
REMARK  159  A    between atoms: _390  and  _391
REMARK  160  A    between atoms: _391  and  _392
REMARK  161  A    between atoms: _397  and  _399
REMARK  162  A    between atoms: _399  and  _400
REMARK  163  A    between atoms: _402  and  _404
REMARK  164  A    between atoms: _404  and  _405
REMARK  165  A    between atoms: _404  and  _407
REMARK  166  A    between atoms: _407  and  _408
REMARK  167  A    between atoms: _411  and  _413
REMARK  168  A    between atoms: _413  and  _414
REMARK  169  A    between atoms: _413  and  _416
REMARK  170  A    between atoms: _416  and  _417
REMARK  171  A    between atoms: _419  and  _421
REMARK  172  A    between atoms: _421  and  _422
REMARK  173  A    between atoms: _424  and  _426
REMARK  174  A    between atoms: _426  and  _427
REMARK  175  A    between atoms: _429  and  _431
REMARK  176  A    between atoms: _431  and  _432
REMARK  177  A    between atoms: _431  and  _434
REMARK  178  A    between atoms: _437  and  _439
REMARK  179  A    between atoms: _439  and  _440
REMARK  180  A    between atoms: _439  and  _442
REMARK  181  A    between atoms: _445  and  _447
REMARK  182  A    between atoms: _447  and  _448
REMARK  183  A    between atoms: _447  and  _450
REMARK  184  A    between atoms: _450  and  _451
REMARK  185  A    between atoms: _453  and  _455
REMARK  186  A    between atoms: _455  and  _456
REMARK  187  A    between atoms: _455  and  _458
REMARK  188  A    between atoms: _458  and  _459
REMARK  189  A    between atoms: _469  and  _471
REMARK  190  A    between atoms: _471  and  _472
REMARK  191  A    between atoms: _474  and  _476
REMARK  192  A    between atoms: _476  and  _477
REMARK  193  A    between atoms: _476  and  _479
REMARK  194  A    between atoms: _479  and  _480
REMARK  195  A    between atoms: _483  and  _485
REMARK  196  A    between atoms: _485  and  _486
REMARK  197  A    between atoms: _488  and  _490
REMARK  198  A    between atoms: _490  and  _491
REMARK  199  A    between atoms: _490  and  _493
REMARK  200  A    between atoms: _493  and  _494
REMARK  201  A    between atoms: _495  and  _497
REMARK  202  A    between atoms: _497  and  _498
REMARK  203  A    between atoms: _501  and  _503
REMARK  204  A    between atoms: _503  and  _504
REMARK  205  A    between atoms: _503  and  _506
REMARK  206  A    between atoms: _506  and  _507
REMARK  207  A    between atoms: _507  and  _508
REMARK  208  A    between atoms: _513  and  _515
REMARK  209  A    between atoms: _515  and  _516
REMARK  210  A    between atoms: _515  and  _518
REMARK  211  A    between atoms: _518  and  _519
REMARK  212  A    between atoms: _519  and  _520
REMARK  213  A    between atoms: _520  and  _521
REMARK  214  A    between atoms: _521  and  _522
REMARK  215  A    between atoms: _527  and  _528
REMARK  216  A    between atoms: _533  and  _535
REMARK  217  A    between atoms: _535  and  _536
REMARK  218  A    between atoms: _538  and  _540
REMARK  219  A    between atoms: _540  and  _541
REMARK  220  A    between atoms: _540  and  _543
REMARK  221  A    between atoms: _546  and  _548
REMARK  222  A    between atoms: _548  and  _549
REMARK  223  A    between atoms: _548  and  _551
REMARK  224  A    between atoms: _551  and  _552
REMARK  225  A    between atoms: _557  and  _558
REMARK                            x       y       z     vdW  Elec       q    Type
REMARK                         _______ _______ _______ _____ _____    ______ ____
ROOT
ATOM      1  O   HOH     1      23.835  52.040  28.849  0.00  0.00    +0.000 OA
ENDROOT
TORSDOF 0
