REMARK  Name = ../refined-set-2016/4kao/4kao_pocket.pdb
REMARK  249 active torsions:
REMARK  status: ('A' for Active; 'I' for Inactive)
REMARK    1  A    between atoms: _1  and  _3
REMARK    2  A    between atoms: _3  and  _4
REMARK    3  A    between atoms: _3  and  _6
REMARK    4  A    between atoms: _6  and  _7
REMARK    5  A    between atoms: _10  and  _12
REMARK    6  A    between atoms: _12  and  _13
REMARK    7  A    between atoms: _15  and  _17
REMARK    8  A    between atoms: _17  and  _18
REMARK    9  A    between atoms: _17  and  _20
REMARK   10  A    between atoms: _20  and  _21
REMARK   11  A    between atoms: _21  and  _22
REMARK   12  A    between atoms: _27  and  _29
REMARK   13  A    between atoms: _29  and  _30
REMARK   14  A    between atoms: _29  and  _32
REMARK   15  A    between atoms: _32  and  _33
REMARK   16  A    between atoms: _39  and  _41
REMARK   17  A    between atoms: _41  and  _42
REMARK   18  A    between atoms: _41  and  _44
REMARK   19  A    between atoms: _47  and  _49
REMARK   20  A    between atoms: _49  and  _50
REMARK   21  A    between atoms: _49  and  _52
REMARK   22  A    between atoms: _52  and  _53
REMARK   23  A    between atoms: _58  and  _60
REMARK   24  A    between atoms: _60  and  _61
REMARK   25  A    between atoms: _60  and  _63
REMARK   26  A    between atoms: _63  and  _64
REMARK   27  A    between atoms: _64  and  _65
REMARK   28  A    between atoms: _70  and  _72
REMARK   29  A    between atoms: _72  and  _73
REMARK   30  A    between atoms: _76  and  _78
REMARK   31  A    between atoms: _78  and  _79
REMARK   32  A    between atoms: _78  and  _81
REMARK   33  A    between atoms: _84  and  _86
REMARK   34  A    between atoms: _86  and  _87
REMARK   35  A    between atoms: _90  and  _92
REMARK   36  A    between atoms: _92  and  _93
REMARK   37  A    between atoms: _92  and  _95
REMARK   38  A    between atoms: _95  and  _96
REMARK   39  A    between atoms: _99  and  _101
REMARK   40  A    between atoms: _101  and  _102
REMARK   41  A    between atoms: _101  and  _104
REMARK   42  A    between atoms: _104  and  _105
REMARK   43  A    between atoms: _105  and  _106
REMARK   44  A    between atoms: _106  and  _107
REMARK   45  A    between atoms: _107  and  _108
REMARK   46  A    between atoms: _112  and  _114
REMARK   47  A    between atoms: _114  and  _115
REMARK   48  A    between atoms: _114  and  _117
REMARK   49  A    between atoms: _117  and  _118
REMARK   50  A    between atoms: _118  and  _119
REMARK   51  A    between atoms: _122  and  _124
REMARK   52  A    between atoms: _124  and  _125
REMARK   53  A    between atoms: _124  and  _127
REMARK   54  A    between atoms: _127  and  _128
REMARK   55  A    between atoms: _128  and  _129
REMARK   56  A    between atoms: _129  and  _130
REMARK   57  A    between atoms: _130  and  _131
REMARK   58  A    between atoms: _135  and  _137
REMARK   59  A    between atoms: _137  and  _138
REMARK   60  A    between atoms: _137  and  _140
REMARK   61  A    between atoms: _140  and  _141
REMARK   62  A    between atoms: _147  and  _149
REMARK   63  A    between atoms: _149  and  _150
REMARK   64  A    between atoms: _149  and  _152
REMARK   65  A    between atoms: _152  and  _153
REMARK   66  A    between atoms: _156  and  _158
REMARK   67  A    between atoms: _158  and  _159
REMARK   68  A    between atoms: _158  and  _161
REMARK   69  A    between atoms: _161  and  _162
REMARK   70  A    between atoms: _162  and  _163
REMARK   71  A    between atoms: _168  and  _170
REMARK   72  A    between atoms: _170  and  _171
REMARK   73  A    between atoms: _170  and  _173
REMARK   74  A    between atoms: _173  and  _174
REMARK   75  A    between atoms: _174  and  _175
REMARK   76  A    between atoms: _178  and  _180
REMARK   77  A    between atoms: _180  and  _181
REMARK   78  A    between atoms: _184  and  _186
REMARK   79  A    between atoms: _186  and  _187
REMARK   80  A    between atoms: _186  and  _189
REMARK   81  A    between atoms: _189  and  _190
REMARK   82  A    between atoms: _193  and  _195
REMARK   83  A    between atoms: _195  and  _196
REMARK   84  A    between atoms: _195  and  _198
REMARK   85  A    between atoms: _198  and  _199
REMARK   86  A    between atoms: _202  and  _204
REMARK   87  A    between atoms: _204  and  _205
REMARK   88  A    between atoms: _204  and  _207
REMARK   89  A    between atoms: _207  and  _208
REMARK   90  A    between atoms: _208  and  _209
REMARK   91  A    between atoms: _211  and  _213
REMARK   92  A    between atoms: _213  and  _214
REMARK   93  A    between atoms: _213  and  _216
REMARK   94  A    between atoms: _216  and  _217
REMARK   95  A    between atoms: _217  and  _218
REMARK   96  A    between atoms: _218  and  _219
REMARK   97  A    between atoms: _228  and  _230
REMARK   98  A    between atoms: _230  and  _231
REMARK   99  A    between atoms: _230  and  _233
REMARK  100  A    between atoms: _233  and  _234
REMARK  101  A    between atoms: _234  and  _235
REMARK  102  A    between atoms: _240  and  _242
REMARK  103  A    between atoms: _242  and  _243
REMARK  104  A    between atoms: _242  and  _245
REMARK  105  A    between atoms: _245  and  _246
REMARK  106  A    between atoms: _252  and  _254
REMARK  107  A    between atoms: _254  and  _255
REMARK  108  A    between atoms: _254  and  _257
REMARK  109  A    between atoms: _257  and  _258
REMARK  110  A    between atoms: _261  and  _263
REMARK  111  A    between atoms: _263  and  _264
REMARK  112  A    between atoms: _263  and  _266
REMARK  113  A    between atoms: _266  and  _267
REMARK  114  A    between atoms: _272  and  _274
REMARK  115  A    between atoms: _274  and  _275
REMARK  116  A    between atoms: _274  and  _277
REMARK  117  A    between atoms: _277  and  _278
REMARK  118  A    between atoms: _283  and  _285
REMARK  119  A    between atoms: _285  and  _286
REMARK  120  A    between atoms: _285  and  _288
REMARK  121  A    between atoms: _288  and  _289
REMARK  122  A    between atoms: _292  and  _294
REMARK  123  A    between atoms: _294  and  _295
REMARK  124  A    between atoms: _294  and  _297
REMARK  125  A    between atoms: _300  and  _302
REMARK  126  A    between atoms: _302  and  _303
REMARK  127  A    between atoms: _302  and  _305
REMARK  128  A    between atoms: _305  and  _306
REMARK  129  A    between atoms: _306  and  _307
REMARK  130  A    between atoms: _307  and  _308
REMARK  131  A    between atoms: _308  and  _309
REMARK  132  A    between atoms: _313  and  _315
REMARK  133  A    between atoms: _315  and  _316
REMARK  134  A    between atoms: _315  and  _318
REMARK  135  A    between atoms: _318  and  _319
REMARK  136  A    between atoms: _322  and  _324
REMARK  137  A    between atoms: _324  and  _325
REMARK  138  A    between atoms: _324  and  _327
REMARK  139  A    between atoms: _327  and  _328
REMARK  140  A    between atoms: _331  and  _333
REMARK  141  A    between atoms: _333  and  _334
REMARK  142  A    between atoms: _333  and  _336
REMARK  143  A    between atoms: _336  and  _337
REMARK  144  A    between atoms: _340  and  _342
REMARK  145  A    between atoms: _342  and  _343
REMARK  146  A    between atoms: _342  and  _345
REMARK  147  A    between atoms: _345  and  _346
REMARK  148  A    between atoms: _346  and  _347
REMARK  149  A    between atoms: _349  and  _351
REMARK  150  A    between atoms: _351  and  _352
REMARK  151  A    between atoms: _351  and  _354
REMARK  152  A    between atoms: _354  and  _355
REMARK  153  A    between atoms: _355  and  _356
REMARK  154  A    between atoms: _359  and  _361
REMARK  155  A    between atoms: _361  and  _362
REMARK  156  A    between atoms: _361  and  _364
REMARK  157  A    between atoms: _364  and  _365
REMARK  158  A    between atoms: _368  and  _370
REMARK  159  A    between atoms: _370  and  _371
REMARK  160  A    between atoms: _370  and  _373
REMARK  161  A    between atoms: _375  and  _377
REMARK  162  A    between atoms: _377  and  _378
REMARK  163  A    between atoms: _377  and  _380
REMARK  164  A    between atoms: _380  and  _381
REMARK  165  A    between atoms: _384  and  _386
REMARK  166  A    between atoms: _386  and  _387
REMARK  167  A    between atoms: _386  and  _389
REMARK  168  A    between atoms: _389  and  _390
REMARK  169  A    between atoms: _393  and  _395
REMARK  170  A    between atoms: _395  and  _396
REMARK  171  A    between atoms: _398  and  _400
REMARK  172  A    between atoms: _400  and  _401
REMARK  173  A    between atoms: _400  and  _403
REMARK  174  A    between atoms: _403  and  _404
REMARK  175  A    between atoms: _404  and  _405
REMARK  176  A    between atoms: _408  and  _410
REMARK  177  A    between atoms: _410  and  _411
REMARK  178  A    between atoms: _414  and  _416
REMARK  179  A    between atoms: _416  and  _417
REMARK  180  A    between atoms: _416  and  _419
REMARK  181  A    between atoms: _419  and  _420
REMARK  182  A    between atoms: _423  and  _425
REMARK  183  A    between atoms: _425  and  _426
REMARK  184  A    between atoms: _425  and  _428
REMARK  185  A    between atoms: _428  and  _429
REMARK  186  A    between atoms: _434  and  _435
REMARK  187  A    between atoms: _437  and  _439
REMARK  188  A    between atoms: _439  and  _440
REMARK  189  A    between atoms: _439  and  _442
REMARK  190  A    between atoms: _442  and  _443
REMARK  191  A    between atoms: _446  and  _448
REMARK  192  A    between atoms: _448  and  _449
REMARK  193  A    between atoms: _448  and  _451
REMARK  194  A    between atoms: _451  and  _452
REMARK  195  A    between atoms: _458  and  _460
REMARK  196  A    between atoms: _460  and  _461
REMARK  197  A    between atoms: _460  and  _463
REMARK  198  A    between atoms: _466  and  _468
REMARK  199  A    between atoms: _468  and  _469
REMARK  200  A    between atoms: _468  and  _471
REMARK  201  A    between atoms: _471  and  _472
REMARK  202  A    between atoms: _477  and  _479
REMARK  203  A    between atoms: _479  and  _480
REMARK  204  A    between atoms: _479  and  _482
REMARK  205  A    between atoms: _482  and  _483
REMARK  206  A    between atoms: _483  and  _484
REMARK  207  A    between atoms: _484  and  _485
REMARK  208  A    between atoms: _494  and  _496
REMARK  209  A    between atoms: _496  and  _497
REMARK  210  A    between atoms: _496  and  _499
REMARK  211  A    between atoms: _499  and  _500
REMARK  212  A    between atoms: _503  and  _505
REMARK  213  A    between atoms: _505  and  _506
REMARK  214  A    between atoms: _505  and  _508
REMARK  215  A    between atoms: _508  and  _509
REMARK  216  A    between atoms: _514  and  _516
REMARK  217  A    between atoms: _516  and  _517
REMARK  218  A    between atoms: _516  and  _519
REMARK  219  A    between atoms: _519  and  _520
REMARK  220  A    between atoms: _523  and  _525
REMARK  221  A    between atoms: _525  and  _526
REMARK  222  A    between atoms: _525  and  _528
REMARK  223  A    between atoms: _531  and  _533
REMARK  224  A    between atoms: _533  and  _534
REMARK  225  A    between atoms: _533  and  _536
REMARK  226  A    between atoms: _536  and  _537
REMARK  227  A    between atoms: _539  and  _541
REMARK  228  A    between atoms: _541  and  _542
REMARK  229  A    between atoms: _541  and  _544
REMARK  230  A    between atoms: _544  and  _545
REMARK  231  A    between atoms: _545  and  _546
REMARK  232  A    between atoms: _546  and  _547
REMARK  233  A    between atoms: _547  and  _548
REMARK  234  A    between atoms: _552  and  _554
REMARK  235  A    between atoms: _554  and  _555
REMARK  236  A    between atoms: _554  and  _557
REMARK  237  A    between atoms: _557  and  _558
REMARK  238  A    between atoms: _561  and  _563
REMARK  239  A    between atoms: _563  and  _564
REMARK  240  A    between atoms: _566  and  _568
REMARK  241  A    between atoms: _568  and  _569
REMARK  242  A    between atoms: _568  and  _571
REMARK  243  A    between atoms: _571  and  _572
REMARK  244  A    between atoms: _575  and  _577
REMARK  245  A    between atoms: _577  and  _578
REMARK  246  A    between atoms: _577  and  _580
REMARK  247  A    between atoms: _580  and  _581
REMARK  248  A    between atoms: _587  and  _589
REMARK  249  A    between atoms: _589  and  _590
REMARK                            x       y       z     vdW  Elec       q    Type
REMARK                         _______ _______ _______ _____ _____    ______ ____
ROOT
ATOM      1  CA  ILE A   1      -3.075   1.143  24.745  0.00  0.00    +0.145 C 
ENDROOT
BRANCH   1   2
ATOM      2  C   ILE A   1      -3.206  -0.289  25.317  0.00  0.00    +0.238 C 
ATOM      3  N   GLY A   2      -2.495  -0.561  26.402  0.00  0.00    -0.297 N 
ATOM      4  H   GLY A   2      -1.906   0.190  26.814  0.00  0.00    +0.150 HD
ATOM      5  O   ILE A   1      -3.958  -1.111  24.792  0.00  0.00    -0.274 OA
BRANCH   3   6
ATOM      6  CA  GLY A   2      -2.506  -1.871  27.041  0.00  0.00    +0.163 C 
BRANCH   6   7
ATOM      7  C   GLY A   2      -1.132  -2.346  27.467  0.00  0.00    +0.229 C 
ATOM      8  O   GLY A   2      -0.123  -1.714  27.141  0.00  0.00    -0.286 OA
ENDBRANCH   6   7
ENDBRANCH   3   6
ENDBRANCH   1   2
BRANCH   1   9
ATOM      9  N   ILE A   1      -1.933   1.876  25.333  0.00  0.00    -0.238 NA
ATOM     10  H   ILE A   1      -0.978   1.582  25.045  0.00  0.00    +0.142 HD
ENDBRANCH   1   9
BRANCH   1  11
ATOM     11  CB  ILE A   1      -2.974   1.184  23.181  0.00  0.00    +0.025 C 
ATOM     12  CG2 ILE A   1      -1.713   0.466  22.659  0.00  0.00    +0.002 C 
BRANCH  11  13
ATOM     13  CG1 ILE A   1      -4.252   0.682  22.468  0.00  0.00    +0.002 C 
ATOM     14  CD1 ILE A   1      -4.372   1.011  20.971  0.00  0.00    +0.000 C 
ENDBRANCH  11  13
ENDBRANCH   1  11
TORSDOF 6
REMARK  Name = ../refined-set-2016/4kao/4kao_pocket.pdb
REMARK  249 active torsions:
REMARK  status: ('A' for Active; 'I' for Inactive)
REMARK    1  A    between atoms: _1  and  _3
REMARK    2  A    between atoms: _3  and  _4
REMARK    3  A    between atoms: _3  and  _6
REMARK    4  A    between atoms: _6  and  _7
REMARK    5  A    between atoms: _10  and  _12
REMARK    6  A    between atoms: _12  and  _13
REMARK    7  A    between atoms: _15  and  _17
REMARK    8  A    between atoms: _17  and  _18
REMARK    9  A    between atoms: _17  and  _20
REMARK   10  A    between atoms: _20  and  _21
REMARK   11  A    between atoms: _21  and  _22
REMARK   12  A    between atoms: _27  and  _29
REMARK   13  A    between atoms: _29  and  _30
REMARK   14  A    between atoms: _29  and  _32
REMARK   15  A    between atoms: _32  and  _33
REMARK   16  A    between atoms: _39  and  _41
REMARK   17  A    between atoms: _41  and  _42
REMARK   18  A    between atoms: _41  and  _44
REMARK   19  A    between atoms: _47  and  _49
REMARK   20  A    between atoms: _49  and  _50
REMARK   21  A    between atoms: _49  and  _52
REMARK   22  A    between atoms: _52  and  _53
REMARK   23  A    between atoms: _58  and  _60
REMARK   24  A    between atoms: _60  and  _61
REMARK   25  A    between atoms: _60  and  _63
REMARK   26  A    between atoms: _63  and  _64
REMARK   27  A    between atoms: _64  and  _65
REMARK   28  A    between atoms: _70  and  _72
REMARK   29  A    between atoms: _72  and  _73
REMARK   30  A    between atoms: _76  and  _78
REMARK   31  A    between atoms: _78  and  _79
REMARK   32  A    between atoms: _78  and  _81
REMARK   33  A    between atoms: _84  and  _86
REMARK   34  A    between atoms: _86  and  _87
REMARK   35  A    between atoms: _90  and  _92
REMARK   36  A    between atoms: _92  and  _93
REMARK   37  A    between atoms: _92  and  _95
REMARK   38  A    between atoms: _95  and  _96
REMARK   39  A    between atoms: _99  and  _101
REMARK   40  A    between atoms: _101  and  _102
REMARK   41  A    between atoms: _101  and  _104
REMARK   42  A    between atoms: _104  and  _105
REMARK   43  A    between atoms: _105  and  _106
REMARK   44  A    between atoms: _106  and  _107
REMARK   45  A    between atoms: _107  and  _108
REMARK   46  A    between atoms: _112  and  _114
REMARK   47  A    between atoms: _114  and  _115
REMARK   48  A    between atoms: _114  and  _117
REMARK   49  A    between atoms: _117  and  _118
REMARK   50  A    between atoms: _118  and  _119
REMARK   51  A    between atoms: _122  and  _124
REMARK   52  A    between atoms: _124  and  _125
REMARK   53  A    between atoms: _124  and  _127
REMARK   54  A    between atoms: _127  and  _128
REMARK   55  A    between atoms: _128  and  _129
REMARK   56  A    between atoms: _129  and  _130
REMARK   57  A    between atoms: _130  and  _131
REMARK   58  A    between atoms: _135  and  _137
REMARK   59  A    between atoms: _137  and  _138
REMARK   60  A    between atoms: _137  and  _140
REMARK   61  A    between atoms: _140  and  _141
REMARK   62  A    between atoms: _147  and  _149
REMARK   63  A    between atoms: _149  and  _150
REMARK   64  A    between atoms: _149  and  _152
REMARK   65  A    between atoms: _152  and  _153
REMARK   66  A    between atoms: _156  and  _158
REMARK   67  A    between atoms: _158  and  _159
REMARK   68  A    between atoms: _158  and  _161
REMARK   69  A    between atoms: _161  and  _162
REMARK   70  A    between atoms: _162  and  _163
REMARK   71  A    between atoms: _168  and  _170
REMARK   72  A    between atoms: _170  and  _171
REMARK   73  A    between atoms: _170  and  _173
REMARK   74  A    between atoms: _173  and  _174
REMARK   75  A    between atoms: _174  and  _175
REMARK   76  A    between atoms: _178  and  _180
REMARK   77  A    between atoms: _180  and  _181
REMARK   78  A    between atoms: _184  and  _186
REMARK   79  A    between atoms: _186  and  _187
REMARK   80  A    between atoms: _186  and  _189
REMARK   81  A    between atoms: _189  and  _190
REMARK   82  A    between atoms: _193  and  _195
REMARK   83  A    between atoms: _195  and  _196
REMARK   84  A    between atoms: _195  and  _198
REMARK   85  A    between atoms: _198  and  _199
REMARK   86  A    between atoms: _202  and  _204
REMARK   87  A    between atoms: _204  and  _205
REMARK   88  A    between atoms: _204  and  _207
REMARK   89  A    between atoms: _207  and  _208
REMARK   90  A    between atoms: _208  and  _209
REMARK   91  A    between atoms: _211  and  _213
REMARK   92  A    between atoms: _213  and  _214
REMARK   93  A    between atoms: _213  and  _216
REMARK   94  A    between atoms: _216  and  _217
REMARK   95  A    between atoms: _217  and  _218
REMARK   96  A    between atoms: _218  and  _219
REMARK   97  A    between atoms: _228  and  _230
REMARK   98  A    between atoms: _230  and  _231
REMARK   99  A    between atoms: _230  and  _233
REMARK  100  A    between atoms: _233  and  _234
REMARK  101  A    between atoms: _234  and  _235
REMARK  102  A    between atoms: _240  and  _242
REMARK  103  A    between atoms: _242  and  _243
REMARK  104  A    between atoms: _242  and  _245
REMARK  105  A    between atoms: _245  and  _246
REMARK  106  A    between atoms: _252  and  _254
REMARK  107  A    between atoms: _254  and  _255
REMARK  108  A    between atoms: _254  and  _257
REMARK  109  A    between atoms: _257  and  _258
REMARK  110  A    between atoms: _261  and  _263
REMARK  111  A    between atoms: _263  and  _264
REMARK  112  A    between atoms: _263  and  _266
REMARK  113  A    between atoms: _266  and  _267
REMARK  114  A    between atoms: _272  and  _274
REMARK  115  A    between atoms: _274  and  _275
REMARK  116  A    between atoms: _274  and  _277
REMARK  117  A    between atoms: _277  and  _278
REMARK  118  A    between atoms: _283  and  _285
REMARK  119  A    between atoms: _285  and  _286
REMARK  120  A    between atoms: _285  and  _288
REMARK  121  A    between atoms: _288  and  _289
REMARK  122  A    between atoms: _292  and  _294
REMARK  123  A    between atoms: _294  and  _295
REMARK  124  A    between atoms: _294  and  _297
REMARK  125  A    between atoms: _300  and  _302
REMARK  126  A    between atoms: _302  and  _303
REMARK  127  A    between atoms: _302  and  _305
REMARK  128  A    between atoms: _305  and  _306
REMARK  129  A    between atoms: _306  and  _307
REMARK  130  A    between atoms: _307  and  _308
REMARK  131  A    between atoms: _308  and  _309
REMARK  132  A    between atoms: _313  and  _315
REMARK  133  A    between atoms: _315  and  _316
REMARK  134  A    between atoms: _315  and  _318
REMARK  135  A    between atoms: _318  and  _319
REMARK  136  A    between atoms: _322  and  _324
REMARK  137  A    between atoms: _324  and  _325
REMARK  138  A    between atoms: _324  and  _327
REMARK  139  A    between atoms: _327  and  _328
REMARK  140  A    between atoms: _331  and  _333
REMARK  141  A    between atoms: _333  and  _334
REMARK  142  A    between atoms: _333  and  _336
REMARK  143  A    between atoms: _336  and  _337
REMARK  144  A    between atoms: _340  and  _342
REMARK  145  A    between atoms: _342  and  _343
REMARK  146  A    between atoms: _342  and  _345
REMARK  147  A    between atoms: _345  and  _346
REMARK  148  A    between atoms: _346  and  _347
REMARK  149  A    between atoms: _349  and  _351
REMARK  150  A    between atoms: _351  and  _352
REMARK  151  A    between atoms: _351  and  _354
REMARK  152  A    between atoms: _354  and  _355
REMARK  153  A    between atoms: _355  and  _356
REMARK  154  A    between atoms: _359  and  _361
REMARK  155  A    between atoms: _361  and  _362
REMARK  156  A    between atoms: _361  and  _364
REMARK  157  A    between atoms: _364  and  _365
REMARK  158  A    between atoms: _368  and  _370
REMARK  159  A    between atoms: _370  and  _371
REMARK  160  A    between atoms: _370  and  _373
REMARK  161  A    between atoms: _375  and  _377
REMARK  162  A    between atoms: _377  and  _378
REMARK  163  A    between atoms: _377  and  _380
REMARK  164  A    between atoms: _380  and  _381
REMARK  165  A    between atoms: _384  and  _386
REMARK  166  A    between atoms: _386  and  _387
REMARK  167  A    between atoms: _386  and  _389
REMARK  168  A    between atoms: _389  and  _390
REMARK  169  A    between atoms: _393  and  _395
REMARK  170  A    between atoms: _395  and  _396
REMARK  171  A    between atoms: _398  and  _400
REMARK  172  A    between atoms: _400  and  _401
REMARK  173  A    between atoms: _400  and  _403
REMARK  174  A    between atoms: _403  and  _404
REMARK  175  A    between atoms: _404  and  _405
REMARK  176  A    between atoms: _408  and  _410
REMARK  177  A    between atoms: _410  and  _411
REMARK  178  A    between atoms: _414  and  _416
REMARK  179  A    between atoms: _416  and  _417
REMARK  180  A    between atoms: _416  and  _419
REMARK  181  A    between atoms: _419  and  _420
REMARK  182  A    between atoms: _423  and  _425
REMARK  183  A    between atoms: _425  and  _426
REMARK  184  A    between atoms: _425  and  _428
REMARK  185  A    between atoms: _428  and  _429
REMARK  186  A    between atoms: _434  and  _435
REMARK  187  A    between atoms: _437  and  _439
REMARK  188  A    between atoms: _439  and  _440
REMARK  189  A    between atoms: _439  and  _442
REMARK  190  A    between atoms: _442  and  _443
REMARK  191  A    between atoms: _446  and  _448
REMARK  192  A    between atoms: _448  and  _449
REMARK  193  A    between atoms: _448  and  _451
REMARK  194  A    between atoms: _451  and  _452
REMARK  195  A    between atoms: _458  and  _460
REMARK  196  A    between atoms: _460  and  _461
REMARK  197  A    between atoms: _460  and  _463
REMARK  198  A    between atoms: _466  and  _468
REMARK  199  A    between atoms: _468  and  _469
REMARK  200  A    between atoms: _468  and  _471
REMARK  201  A    between atoms: _471  and  _472
REMARK  202  A    between atoms: _477  and  _479
REMARK  203  A    between atoms: _479  and  _480
REMARK  204  A    between atoms: _479  and  _482
REMARK  205  A    between atoms: _482  and  _483
REMARK  206  A    between atoms: _483  and  _484
REMARK  207  A    between atoms: _484  and  _485
REMARK  208  A    between atoms: _494  and  _496
REMARK  209  A    between atoms: _496  and  _497
REMARK  210  A    between atoms: _496  and  _499
REMARK  211  A    between atoms: _499  and  _500
REMARK  212  A    between atoms: _503  and  _505
REMARK  213  A    between atoms: _505  and  _506
REMARK  214  A    between atoms: _505  and  _508
REMARK  215  A    between atoms: _508  and  _509
REMARK  216  A    between atoms: _514  and  _516
REMARK  217  A    between atoms: _516  and  _517
REMARK  218  A    between atoms: _516  and  _519
REMARK  219  A    between atoms: _519  and  _520
REMARK  220  A    between atoms: _523  and  _525
REMARK  221  A    between atoms: _525  and  _526
REMARK  222  A    between atoms: _525  and  _528
REMARK  223  A    between atoms: _531  and  _533
REMARK  224  A    between atoms: _533  and  _534
REMARK  225  A    between atoms: _533  and  _536
REMARK  226  A    between atoms: _536  and  _537
REMARK  227  A    between atoms: _539  and  _541
REMARK  228  A    between atoms: _541  and  _542
REMARK  229  A    between atoms: _541  and  _544
REMARK  230  A    between atoms: _544  and  _545
REMARK  231  A    between atoms: _545  and  _546
REMARK  232  A    between atoms: _546  and  _547
REMARK  233  A    between atoms: _547  and  _548
REMARK  234  A    between atoms: _552  and  _554
REMARK  235  A    between atoms: _554  and  _555
REMARK  236  A    between atoms: _554  and  _557
REMARK  237  A    between atoms: _557  and  _558
REMARK  238  A    between atoms: _561  and  _563
REMARK  239  A    between atoms: _563  and  _564
REMARK  240  A    between atoms: _566  and  _568
REMARK  241  A    between atoms: _568  and  _569
REMARK  242  A    between atoms: _568  and  _571
REMARK  243  A    between atoms: _571  and  _572
REMARK  244  A    between atoms: _575  and  _577
REMARK  245  A    between atoms: _577  and  _578
REMARK  246  A    between atoms: _577  and  _580
REMARK  247  A    between atoms: _580  and  _581
REMARK  248  A    between atoms: _587  and  _589
REMARK  249  A    between atoms: _589  and  _590
REMARK                            x       y       z     vdW  Elec       q    Type
REMARK                         _______ _______ _______ _____ _____    ______ ____
ROOT
ATOM      1  C   GLN A   1       6.061  -8.701  29.238  0.00  0.00    +0.238 C 
ATOM      2  O   GLN A   1       6.466  -9.026  30.343  0.00  0.00    -0.274 OA
ATOM      3  N   PHE A   2       6.675  -7.771  28.479  0.00  0.00    -0.298 N 
ATOM      4  H   PHE A   2       6.252  -7.536  27.558  0.00  0.00    +0.150 HD
ENDROOT
BRANCH   1   5
ATOM      5  CA  GLN A   1       4.829  -9.421  28.644  0.00  0.00    +0.145 C 
BRANCH   5   6
ATOM      6  N   GLN A   1       3.946  -8.567  27.829  0.00  0.00    -0.238 NA
ATOM      7  H   GLN A   1       3.776  -8.844  26.841  0.00  0.00    +0.142 HD
ENDBRANCH   5   6
BRANCH   5   8
ATOM      8  CB  GLN A   1       5.287 -10.645  27.825  0.00  0.00    +0.036 C 
BRANCH   8   9
ATOM      9  CG  GLN A   1       5.690 -11.839  28.693  0.00  0.00    +0.087 C 
BRANCH   9  10
ATOM     10  CD  GLN A   1       6.580 -12.837  27.994  0.00  0.00    +0.219 C 
ATOM     11  NE2 GLN A   1       7.434 -13.481  28.764  0.00  0.00    -0.329 N 
ATOM     12 HE21 GLN A   1       7.486 -13.262  29.779  0.00  0.00    +0.145 HD
ATOM     13 HE22 GLN A   1       8.056 -14.208  28.356  0.00  0.00    +0.145 HD
ATOM     14  OE1 GLN A   1       6.493 -13.074  26.781  0.00  0.00    -0.275 OA
ENDBRANCH   9  10
ENDBRANCH   8   9
ENDBRANCH   5   8
ENDBRANCH   1   5
BRANCH   3  15
ATOM     15  CA  PHE A   2       7.902  -7.070  28.871  0.00  0.00    +0.141 C 
BRANCH  15  16
ATOM     16  C   PHE A   2       7.698  -5.625  29.286  0.00  0.00    +0.227 C 
ATOM     17  O   PHE A   2       8.618  -5.006  29.826  0.00  0.00    -0.286 OA
ENDBRANCH  15  16
BRANCH  15  18
ATOM     18  CB  PHE A   2       8.923  -7.152  27.733  0.00  0.00    +0.054 C 
BRANCH  18  19
ATOM     19  CG  PHE A   2       9.304  -8.563  27.364  0.00  0.00    -0.020 A 
ATOM     20  CD2 PHE A   2      10.358  -9.206  28.002  0.00  0.00    -0.004 A 
ATOM     21  CE2 PHE A   2      10.717 -10.513  27.654  0.00  0.00    -0.000 A 
ATOM     22  CZ  PHE A   2      10.022 -11.183  26.672  0.00  0.00    -0.000 A 
ATOM     23  CE1 PHE A   2       8.969 -10.562  26.030  0.00  0.00    -0.000 A 
ATOM     24  CD1 PHE A   2       8.609  -9.253  26.374  0.00  0.00    -0.004 A 
ENDBRANCH  18  19
ENDBRANCH  15  18
ENDBRANCH   3  15
TORSDOF 9
REMARK  Name = ../refined-set-2016/4kao/4kao_pocket.pdb
REMARK  249 active torsions:
REMARK  status: ('A' for Active; 'I' for Inactive)
REMARK    1  A    between atoms: _1  and  _3
REMARK    2  A    between atoms: _3  and  _4
REMARK    3  A    between atoms: _3  and  _6
REMARK    4  A    between atoms: _6  and  _7
REMARK    5  A    between atoms: _10  and  _12
REMARK    6  A    between atoms: _12  and  _13
REMARK    7  A    between atoms: _15  and  _17
REMARK    8  A    between atoms: _17  and  _18
REMARK    9  A    between atoms: _17  and  _20
REMARK   10  A    between atoms: _20  and  _21
REMARK   11  A    between atoms: _21  and  _22
REMARK   12  A    between atoms: _27  and  _29
REMARK   13  A    between atoms: _29  and  _30
REMARK   14  A    between atoms: _29  and  _32
REMARK   15  A    between atoms: _32  and  _33
REMARK   16  A    between atoms: _39  and  _41
REMARK   17  A    between atoms: _41  and  _42
REMARK   18  A    between atoms: _41  and  _44
REMARK   19  A    between atoms: _47  and  _49
REMARK   20  A    between atoms: _49  and  _50
REMARK   21  A    between atoms: _49  and  _52
REMARK   22  A    between atoms: _52  and  _53
REMARK   23  A    between atoms: _58  and  _60
REMARK   24  A    between atoms: _60  and  _61
REMARK   25  A    between atoms: _60  and  _63
REMARK   26  A    between atoms: _63  and  _64
REMARK   27  A    between atoms: _64  and  _65
REMARK   28  A    between atoms: _70  and  _72
REMARK   29  A    between atoms: _72  and  _73
REMARK   30  A    between atoms: _76  and  _78
REMARK   31  A    between atoms: _78  and  _79
REMARK   32  A    between atoms: _78  and  _81
REMARK   33  A    between atoms: _84  and  _86
REMARK   34  A    between atoms: _86  and  _87
REMARK   35  A    between atoms: _90  and  _92
REMARK   36  A    between atoms: _92  and  _93
REMARK   37  A    between atoms: _92  and  _95
REMARK   38  A    between atoms: _95  and  _96
REMARK   39  A    between atoms: _99  and  _101
REMARK   40  A    between atoms: _101  and  _102
REMARK   41  A    between atoms: _101  and  _104
REMARK   42  A    between atoms: _104  and  _105
REMARK   43  A    between atoms: _105  and  _106
REMARK   44  A    between atoms: _106  and  _107
REMARK   45  A    between atoms: _107  and  _108
REMARK   46  A    between atoms: _112  and  _114
REMARK   47  A    between atoms: _114  and  _115
REMARK   48  A    between atoms: _114  and  _117
REMARK   49  A    between atoms: _117  and  _118
REMARK   50  A    between atoms: _118  and  _119
REMARK   51  A    between atoms: _122  and  _124
REMARK   52  A    between atoms: _124  and  _125
REMARK   53  A    between atoms: _124  and  _127
REMARK   54  A    between atoms: _127  and  _128
REMARK   55  A    between atoms: _128  and  _129
REMARK   56  A    between atoms: _129  and  _130
REMARK   57  A    between atoms: _130  and  _131
REMARK   58  A    between atoms: _135  and  _137
REMARK   59  A    between atoms: _137  and  _138
REMARK   60  A    between atoms: _137  and  _140
REMARK   61  A    between atoms: _140  and  _141
REMARK   62  A    between atoms: _147  and  _149
REMARK   63  A    between atoms: _149  and  _150
REMARK   64  A    between atoms: _149  and  _152
REMARK   65  A    between atoms: _152  and  _153
REMARK   66  A    between atoms: _156  and  _158
REMARK   67  A    between atoms: _158  and  _159
REMARK   68  A    between atoms: _158  and  _161
REMARK   69  A    between atoms: _161  and  _162
REMARK   70  A    between atoms: _162  and  _163
REMARK   71  A    between atoms: _168  and  _170
REMARK   72  A    between atoms: _170  and  _171
REMARK   73  A    between atoms: _170  and  _173
REMARK   74  A    between atoms: _173  and  _174
REMARK   75  A    between atoms: _174  and  _175
REMARK   76  A    between atoms: _178  and  _180
REMARK   77  A    between atoms: _180  and  _181
REMARK   78  A    between atoms: _184  and  _186
REMARK   79  A    between atoms: _186  and  _187
REMARK   80  A    between atoms: _186  and  _189
REMARK   81  A    between atoms: _189  and  _190
REMARK   82  A    between atoms: _193  and  _195
REMARK   83  A    between atoms: _195  and  _196
REMARK   84  A    between atoms: _195  and  _198
REMARK   85  A    between atoms: _198  and  _199
REMARK   86  A    between atoms: _202  and  _204
REMARK   87  A    between atoms: _204  and  _205
REMARK   88  A    between atoms: _204  and  _207
REMARK   89  A    between atoms: _207  and  _208
REMARK   90  A    between atoms: _208  and  _209
REMARK   91  A    between atoms: _211  and  _213
REMARK   92  A    between atoms: _213  and  _214
REMARK   93  A    between atoms: _213  and  _216
REMARK   94  A    between atoms: _216  and  _217
REMARK   95  A    between atoms: _217  and  _218
REMARK   96  A    between atoms: _218  and  _219
REMARK   97  A    between atoms: _228  and  _230
REMARK   98  A    between atoms: _230  and  _231
REMARK   99  A    between atoms: _230  and  _233
REMARK  100  A    between atoms: _233  and  _234
REMARK  101  A    between atoms: _234  and  _235
REMARK  102  A    between atoms: _240  and  _242
REMARK  103  A    between atoms: _242  and  _243
REMARK  104  A    between atoms: _242  and  _245
REMARK  105  A    between atoms: _245  and  _246
REMARK  106  A    between atoms: _252  and  _254
REMARK  107  A    between atoms: _254  and  _255
REMARK  108  A    between atoms: _254  and  _257
REMARK  109  A    between atoms: _257  and  _258
REMARK  110  A    between atoms: _261  and  _263
REMARK  111  A    between atoms: _263  and  _264
REMARK  112  A    between atoms: _263  and  _266
REMARK  113  A    between atoms: _266  and  _267
REMARK  114  A    between atoms: _272  and  _274
REMARK  115  A    between atoms: _274  and  _275
REMARK  116  A    between atoms: _274  and  _277
REMARK  117  A    between atoms: _277  and  _278
REMARK  118  A    between atoms: _283  and  _285
REMARK  119  A    between atoms: _285  and  _286
REMARK  120  A    between atoms: _285  and  _288
REMARK  121  A    between atoms: _288  and  _289
REMARK  122  A    between atoms: _292  and  _294
REMARK  123  A    between atoms: _294  and  _295
REMARK  124  A    between atoms: _294  and  _297
REMARK  125  A    between atoms: _300  and  _302
REMARK  126  A    between atoms: _302  and  _303
REMARK  127  A    between atoms: _302  and  _305
REMARK  128  A    between atoms: _305  and  _306
REMARK  129  A    between atoms: _306  and  _307
REMARK  130  A    between atoms: _307  and  _308
REMARK  131  A    between atoms: _308  and  _309
REMARK  132  A    between atoms: _313  and  _315
REMARK  133  A    between atoms: _315  and  _316
REMARK  134  A    between atoms: _315  and  _318
REMARK  135  A    between atoms: _318  and  _319
REMARK  136  A    between atoms: _322  and  _324
REMARK  137  A    between atoms: _324  and  _325
REMARK  138  A    between atoms: _324  and  _327
REMARK  139  A    between atoms: _327  and  _328
REMARK  140  A    between atoms: _331  and  _333
REMARK  141  A    between atoms: _333  and  _334
REMARK  142  A    between atoms: _333  and  _336
REMARK  143  A    between atoms: _336  and  _337
REMARK  144  A    between atoms: _340  and  _342
REMARK  145  A    between atoms: _342  and  _343
REMARK  146  A    between atoms: _342  and  _345
REMARK  147  A    between atoms: _345  and  _346
REMARK  148  A    between atoms: _346  and  _347
REMARK  149  A    between atoms: _349  and  _351
REMARK  150  A    between atoms: _351  and  _352
REMARK  151  A    between atoms: _351  and  _354
REMARK  152  A    between atoms: _354  and  _355
REMARK  153  A    between atoms: _355  and  _356
REMARK  154  A    between atoms: _359  and  _361
REMARK  155  A    between atoms: _361  and  _362
REMARK  156  A    between atoms: _361  and  _364
REMARK  157  A    between atoms: _364  and  _365
REMARK  158  A    between atoms: _368  and  _370
REMARK  159  A    between atoms: _370  and  _371
REMARK  160  A    between atoms: _370  and  _373
REMARK  161  A    between atoms: _375  and  _377
REMARK  162  A    between atoms: _377  and  _378
REMARK  163  A    between atoms: _377  and  _380
REMARK  164  A    between atoms: _380  and  _381
REMARK  165  A    between atoms: _384  and  _386
REMARK  166  A    between atoms: _386  and  _387
REMARK  167  A    between atoms: _386  and  _389
REMARK  168  A    between atoms: _389  and  _390
REMARK  169  A    between atoms: _393  and  _395
REMARK  170  A    between atoms: _395  and  _396
REMARK  171  A    between atoms: _398  and  _400
REMARK  172  A    between atoms: _400  and  _401
REMARK  173  A    between atoms: _400  and  _403
REMARK  174  A    between atoms: _403  and  _404
REMARK  175  A    between atoms: _404  and  _405
REMARK  176  A    between atoms: _408  and  _410
REMARK  177  A    between atoms: _410  and  _411
REMARK  178  A    between atoms: _414  and  _416
REMARK  179  A    between atoms: _416  and  _417
REMARK  180  A    between atoms: _416  and  _419
REMARK  181  A    between atoms: _419  and  _420
REMARK  182  A    between atoms: _423  and  _425
REMARK  183  A    between atoms: _425  and  _426
REMARK  184  A    between atoms: _425  and  _428
REMARK  185  A    between atoms: _428  and  _429
REMARK  186  A    between atoms: _434  and  _435
REMARK  187  A    between atoms: _437  and  _439
REMARK  188  A    between atoms: _439  and  _440
REMARK  189  A    between atoms: _439  and  _442
REMARK  190  A    between atoms: _442  and  _443
REMARK  191  A    between atoms: _446  and  _448
REMARK  192  A    between atoms: _448  and  _449
REMARK  193  A    between atoms: _448  and  _451
REMARK  194  A    between atoms: _451  and  _452
REMARK  195  A    between atoms: _458  and  _460
REMARK  196  A    between atoms: _460  and  _461
REMARK  197  A    between atoms: _460  and  _463
REMARK  198  A    between atoms: _466  and  _468
REMARK  199  A    between atoms: _468  and  _469
REMARK  200  A    between atoms: _468  and  _471
REMARK  201  A    between atoms: _471  and  _472
REMARK  202  A    between atoms: _477  and  _479
REMARK  203  A    between atoms: _479  and  _480
REMARK  204  A    between atoms: _479  and  _482
REMARK  205  A    between atoms: _482  and  _483
REMARK  206  A    between atoms: _483  and  _484
REMARK  207  A    between atoms: _484  and  _485
REMARK  208  A    between atoms: _494  and  _496
REMARK  209  A    between atoms: _496  and  _497
REMARK  210  A    between atoms: _496  and  _499
REMARK  211  A    between atoms: _499  and  _500
REMARK  212  A    between atoms: _503  and  _505
REMARK  213  A    between atoms: _505  and  _506
REMARK  214  A    between atoms: _505  and  _508
REMARK  215  A    between atoms: _508  and  _509
REMARK  216  A    between atoms: _514  and  _516
REMARK  217  A    between atoms: _516  and  _517
REMARK  218  A    between atoms: _516  and  _519
REMARK  219  A    between atoms: _519  and  _520
REMARK  220  A    between atoms: _523  and  _525
REMARK  221  A    between atoms: _525  and  _526
REMARK  222  A    between atoms: _525  and  _528
REMARK  223  A    between atoms: _531  and  _533
REMARK  224  A    between atoms: _533  and  _534
REMARK  225  A    between atoms: _533  and  _536
REMARK  226  A    between atoms: _536  and  _537
REMARK  227  A    between atoms: _539  and  _541
REMARK  228  A    between atoms: _541  and  _542
REMARK  229  A    between atoms: _541  and  _544
REMARK  230  A    between atoms: _544  and  _545
REMARK  231  A    between atoms: _545  and  _546
REMARK  232  A    between atoms: _546  and  _547
REMARK  233  A    between atoms: _547  and  _548
REMARK  234  A    between atoms: _552  and  _554
REMARK  235  A    between atoms: _554  and  _555
REMARK  236  A    between atoms: _554  and  _557
REMARK  237  A    between atoms: _557  and  _558
REMARK  238  A    between atoms: _561  and  _563
REMARK  239  A    between atoms: _563  and  _564
REMARK  240  A    between atoms: _566  and  _568
REMARK  241  A    between atoms: _568  and  _569
REMARK  242  A    between atoms: _568  and  _571
REMARK  243  A    between atoms: _571  and  _572
REMARK  244  A    between atoms: _575  and  _577
REMARK  245  A    between atoms: _577  and  _578
REMARK  246  A    between atoms: _577  and  _580
REMARK  247  A    between atoms: _580  and  _581
REMARK  248  A    between atoms: _587  and  _589
REMARK  249  A    between atoms: _589  and  _590
REMARK                            x       y       z     vdW  Elec       q    Type
REMARK                         _______ _______ _______ _____ _____    ______ ____
ROOT
ATOM      1  CA  HIS A   2       1.634   2.568  23.444  0.00  0.00    +0.155 C 
ENDROOT
BRANCH   1   4
ATOM      2  C   VAL A   1       1.544   0.344  24.451  0.00  0.00    +0.238 C 
ATOM      3  O   VAL A   1       0.560   0.628  25.129  0.00  0.00    -0.274 OA
ATOM      4  N   HIS A   2       2.134   1.213  23.643  0.00  0.00    -0.297 N 
ATOM      5  H   HIS A   2       2.989   0.916  23.130  0.00  0.00    +0.150 HD
BRANCH   2   6
ATOM      6  CA  VAL A   1       2.198  -1.027  24.589  0.00  0.00    +0.145 C 
BRANCH   6   7
ATOM      7  CB  VAL A   1       1.355  -2.162  23.942  0.00  0.00    +0.025 C 
ATOM      8  CG2 VAL A   1       1.913  -3.544  24.312  0.00  0.00    +0.002 C 
ATOM      9  CG1 VAL A   1       1.282  -1.990  22.413  0.00  0.00    +0.002 C 
ENDBRANCH   6   7
BRANCH   6  10
ATOM     10  N   VAL A   1       2.380  -1.189  26.020  0.00  0.00    -0.238 NA
ATOM     11  H   VAL A   1       1.529  -1.283  26.611  0.00  0.00    +0.142 HD
ENDBRANCH   6  10
ENDBRANCH   2   6
ENDBRANCH   1   4
BRANCH   1  12
ATOM     12  C   HIS A   2       1.204   2.721  22.002  0.00  0.00    +0.241 C 
ATOM     13  N   GLN A   3       0.415   3.755  21.708  0.00  0.00    -0.298 N 
ATOM     14  H   GLN A   3       0.026   4.339  22.475  0.00  0.00    +0.150 HD
ATOM     15  O   HIS A   2       1.607   1.928  21.154  0.00  0.00    -0.273 OA
BRANCH  13  16
ATOM     16  CA  GLN A   3       0.091   4.076  20.322  0.00  0.00    +0.137 C 
BRANCH  16  17
ATOM     17  C   GLN A   3       0.964   5.310  19.995  0.00  0.00    +0.227 C 
ATOM     18  O   GLN A   3       1.486   5.927  20.914  0.00  0.00    -0.286 OA
ENDBRANCH  16  17
BRANCH  16  19
ATOM     19  CB  GLN A   3      -1.419   4.315  20.088  0.00  0.00    +0.037 C 
BRANCH  19  20
ATOM     20  CG  GLN A   3      -1.986   5.610  20.659  0.00  0.00    +0.087 C 
BRANCH  20  21
ATOM     21  CD  GLN A   3      -3.426   5.876  20.268  0.00  0.00    +0.219 C 
ATOM     22  NE2 GLN A   3      -3.855   7.127  20.428  0.00  0.00    -0.329 N 
ATOM     23 HE21 GLN A   3      -3.208   7.856  20.791  0.00  0.00    +0.145 HD
ATOM     24 HE22 GLN A   3      -4.837   7.375  20.190  0.00  0.00    +0.145 HD
ATOM     25  OE1 GLN A   3      -4.169   4.984  19.838  0.00  0.00    -0.275 OA
ENDBRANCH  20  21
ENDBRANCH  19  20
ENDBRANCH  16  19
ENDBRANCH  13  16
ENDBRANCH   1  12
BRANCH   1  26
ATOM     26  CB  HIS A   2       2.772   3.558  23.712  0.00  0.00    +0.076 C 
BRANCH  26  27
ATOM     27  CG  HIS A   2       3.080   3.804  25.145  0.00  0.00    +0.082 A 
ATOM     28  CD2 HIS A   2       3.614   3.034  26.118  0.00  0.00    +0.115 A 
ATOM     29  NE2 HIS A   2       3.609   3.812  27.269  0.00  0.00    -0.221 NA
ATOM     30  CE1 HIS A   2       3.094   4.984  26.952  0.00  0.00    +0.199 A 
ATOM     31  ND1 HIS A   2       2.747   5.029  25.688  0.00  0.00    -0.227 NA
ENDBRANCH  26  27
ENDBRANCH   1  26
TORSDOF 12
REMARK  Name = ../refined-set-2016/4kao/4kao_pocket.pdb
REMARK  249 active torsions:
REMARK  status: ('A' for Active; 'I' for Inactive)
REMARK    1  A    between atoms: _1  and  _3
REMARK    2  A    between atoms: _3  and  _4
REMARK    3  A    between atoms: _3  and  _6
REMARK    4  A    between atoms: _6  and  _7
REMARK    5  A    between atoms: _10  and  _12
REMARK    6  A    between atoms: _12  and  _13
REMARK    7  A    between atoms: _15  and  _17
REMARK    8  A    between atoms: _17  and  _18
REMARK    9  A    between atoms: _17  and  _20
REMARK   10  A    between atoms: _20  and  _21
REMARK   11  A    between atoms: _21  and  _22
REMARK   12  A    between atoms: _27  and  _29
REMARK   13  A    between atoms: _29  and  _30
REMARK   14  A    between atoms: _29  and  _32
REMARK   15  A    between atoms: _32  and  _33
REMARK   16  A    between atoms: _39  and  _41
REMARK   17  A    between atoms: _41  and  _42
REMARK   18  A    between atoms: _41  and  _44
REMARK   19  A    between atoms: _47  and  _49
REMARK   20  A    between atoms: _49  and  _50
REMARK   21  A    between atoms: _49  and  _52
REMARK   22  A    between atoms: _52  and  _53
REMARK   23  A    between atoms: _58  and  _60
REMARK   24  A    between atoms: _60  and  _61
REMARK   25  A    between atoms: _60  and  _63
REMARK   26  A    between atoms: _63  and  _64
REMARK   27  A    between atoms: _64  and  _65
REMARK   28  A    between atoms: _70  and  _72
REMARK   29  A    between atoms: _72  and  _73
REMARK   30  A    between atoms: _76  and  _78
REMARK   31  A    between atoms: _78  and  _79
REMARK   32  A    between atoms: _78  and  _81
REMARK   33  A    between atoms: _84  and  _86
REMARK   34  A    between atoms: _86  and  _87
REMARK   35  A    between atoms: _90  and  _92
REMARK   36  A    between atoms: _92  and  _93
REMARK   37  A    between atoms: _92  and  _95
REMARK   38  A    between atoms: _95  and  _96
REMARK   39  A    between atoms: _99  and  _101
REMARK   40  A    between atoms: _101  and  _102
REMARK   41  A    between atoms: _101  and  _104
REMARK   42  A    between atoms: _104  and  _105
REMARK   43  A    between atoms: _105  and  _106
REMARK   44  A    between atoms: _106  and  _107
REMARK   45  A    between atoms: _107  and  _108
REMARK   46  A    between atoms: _112  and  _114
REMARK   47  A    between atoms: _114  and  _115
REMARK   48  A    between atoms: _114  and  _117
REMARK   49  A    between atoms: _117  and  _118
REMARK   50  A    between atoms: _118  and  _119
REMARK   51  A    between atoms: _122  and  _124
REMARK   52  A    between atoms: _124  and  _125
REMARK   53  A    between atoms: _124  and  _127
REMARK   54  A    between atoms: _127  and  _128
REMARK   55  A    between atoms: _128  and  _129
REMARK   56  A    between atoms: _129  and  _130
REMARK   57  A    between atoms: _130  and  _131
REMARK   58  A    between atoms: _135  and  _137
REMARK   59  A    between atoms: _137  and  _138
REMARK   60  A    between atoms: _137  and  _140
REMARK   61  A    between atoms: _140  and  _141
REMARK   62  A    between atoms: _147  and  _149
REMARK   63  A    between atoms: _149  and  _150
REMARK   64  A    between atoms: _149  and  _152
REMARK   65  A    between atoms: _152  and  _153
REMARK   66  A    between atoms: _156  and  _158
REMARK   67  A    between atoms: _158  and  _159
REMARK   68  A    between atoms: _158  and  _161
REMARK   69  A    between atoms: _161  and  _162
REMARK   70  A    between atoms: _162  and  _163
REMARK   71  A    between atoms: _168  and  _170
REMARK   72  A    between atoms: _170  and  _171
REMARK   73  A    between atoms: _170  and  _173
REMARK   74  A    between atoms: _173  and  _174
REMARK   75  A    between atoms: _174  and  _175
REMARK   76  A    between atoms: _178  and  _180
REMARK   77  A    between atoms: _180  and  _181
REMARK   78  A    between atoms: _184  and  _186
REMARK   79  A    between atoms: _186  and  _187
REMARK   80  A    between atoms: _186  and  _189
REMARK   81  A    between atoms: _189  and  _190
REMARK   82  A    between atoms: _193  and  _195
REMARK   83  A    between atoms: _195  and  _196
REMARK   84  A    between atoms: _195  and  _198
REMARK   85  A    between atoms: _198  and  _199
REMARK   86  A    between atoms: _202  and  _204
REMARK   87  A    between atoms: _204  and  _205
REMARK   88  A    between atoms: _204  and  _207
REMARK   89  A    between atoms: _207  and  _208
REMARK   90  A    between atoms: _208  and  _209
REMARK   91  A    between atoms: _211  and  _213
REMARK   92  A    between atoms: _213  and  _214
REMARK   93  A    between atoms: _213  and  _216
REMARK   94  A    between atoms: _216  and  _217
REMARK   95  A    between atoms: _217  and  _218
REMARK   96  A    between atoms: _218  and  _219
REMARK   97  A    between atoms: _228  and  _230
REMARK   98  A    between atoms: _230  and  _231
REMARK   99  A    between atoms: _230  and  _233
REMARK  100  A    between atoms: _233  and  _234
REMARK  101  A    between atoms: _234  and  _235
REMARK  102  A    between atoms: _240  and  _242
REMARK  103  A    between atoms: _242  and  _243
REMARK  104  A    between atoms: _242  and  _245
REMARK  105  A    between atoms: _245  and  _246
REMARK  106  A    between atoms: _252  and  _254
REMARK  107  A    between atoms: _254  and  _255
REMARK  108  A    between atoms: _254  and  _257
REMARK  109  A    between atoms: _257  and  _258
REMARK  110  A    between atoms: _261  and  _263
REMARK  111  A    between atoms: _263  and  _264
REMARK  112  A    between atoms: _263  and  _266
REMARK  113  A    between atoms: _266  and  _267
REMARK  114  A    between atoms: _272  and  _274
REMARK  115  A    between atoms: _274  and  _275
REMARK  116  A    between atoms: _274  and  _277
REMARK  117  A    between atoms: _277  and  _278
REMARK  118  A    between atoms: _283  and  _285
REMARK  119  A    between atoms: _285  and  _286
REMARK  120  A    between atoms: _285  and  _288
REMARK  121  A    between atoms: _288  and  _289
REMARK  122  A    between atoms: _292  and  _294
REMARK  123  A    between atoms: _294  and  _295
REMARK  124  A    between atoms: _294  and  _297
REMARK  125  A    between atoms: _300  and  _302
REMARK  126  A    between atoms: _302  and  _303
REMARK  127  A    between atoms: _302  and  _305
REMARK  128  A    between atoms: _305  and  _306
REMARK  129  A    between atoms: _306  and  _307
REMARK  130  A    between atoms: _307  and  _308
REMARK  131  A    between atoms: _308  and  _309
REMARK  132  A    between atoms: _313  and  _315
REMARK  133  A    between atoms: _315  and  _316
REMARK  134  A    between atoms: _315  and  _318
REMARK  135  A    between atoms: _318  and  _319
REMARK  136  A    between atoms: _322  and  _324
REMARK  137  A    between atoms: _324  and  _325
REMARK  138  A    between atoms: _324  and  _327
REMARK  139  A    between atoms: _327  and  _328
REMARK  140  A    between atoms: _331  and  _333
REMARK  141  A    between atoms: _333  and  _334
REMARK  142  A    between atoms: _333  and  _336
REMARK  143  A    between atoms: _336  and  _337
REMARK  144  A    between atoms: _340  and  _342
REMARK  145  A    between atoms: _342  and  _343
REMARK  146  A    between atoms: _342  and  _345
REMARK  147  A    between atoms: _345  and  _346
REMARK  148  A    between atoms: _346  and  _347
REMARK  149  A    between atoms: _349  and  _351
REMARK  150  A    between atoms: _351  and  _352
REMARK  151  A    between atoms: _351  and  _354
REMARK  152  A    between atoms: _354  and  _355
REMARK  153  A    between atoms: _355  and  _356
REMARK  154  A    between atoms: _359  and  _361
REMARK  155  A    between atoms: _361  and  _362
REMARK  156  A    between atoms: _361  and  _364
REMARK  157  A    between atoms: _364  and  _365
REMARK  158  A    between atoms: _368  and  _370
REMARK  159  A    between atoms: _370  and  _371
REMARK  160  A    between atoms: _370  and  _373
REMARK  161  A    between atoms: _375  and  _377
REMARK  162  A    between atoms: _377  and  _378
REMARK  163  A    between atoms: _377  and  _380
REMARK  164  A    between atoms: _380  and  _381
REMARK  165  A    between atoms: _384  and  _386
REMARK  166  A    between atoms: _386  and  _387
REMARK  167  A    between atoms: _386  and  _389
REMARK  168  A    between atoms: _389  and  _390
REMARK  169  A    between atoms: _393  and  _395
REMARK  170  A    between atoms: _395  and  _396
REMARK  171  A    between atoms: _398  and  _400
REMARK  172  A    between atoms: _400  and  _401
REMARK  173  A    between atoms: _400  and  _403
REMARK  174  A    between atoms: _403  and  _404
REMARK  175  A    between atoms: _404  and  _405
REMARK  176  A    between atoms: _408  and  _410
REMARK  177  A    between atoms: _410  and  _411
REMARK  178  A    between atoms: _414  and  _416
REMARK  179  A    between atoms: _416  and  _417
REMARK  180  A    between atoms: _416  and  _419
REMARK  181  A    between atoms: _419  and  _420
REMARK  182  A    between atoms: _423  and  _425
REMARK  183  A    between atoms: _425  and  _426
REMARK  184  A    between atoms: _425  and  _428
REMARK  185  A    between atoms: _428  and  _429
REMARK  186  A    between atoms: _434  and  _435
REMARK  187  A    between atoms: _437  and  _439
REMARK  188  A    between atoms: _439  and  _440
REMARK  189  A    between atoms: _439  and  _442
REMARK  190  A    between atoms: _442  and  _443
REMARK  191  A    between atoms: _446  and  _448
REMARK  192  A    between atoms: _448  and  _449
REMARK  193  A    between atoms: _448  and  _451
REMARK  194  A    between atoms: _451  and  _452
REMARK  195  A    between atoms: _458  and  _460
REMARK  196  A    between atoms: _460  and  _461
REMARK  197  A    between atoms: _460  and  _463
REMARK  198  A    between atoms: _466  and  _468
REMARK  199  A    between atoms: _468  and  _469
REMARK  200  A    between atoms: _468  and  _471
REMARK  201  A    between atoms: _471  and  _472
REMARK  202  A    between atoms: _477  and  _479
REMARK  203  A    between atoms: _479  and  _480
REMARK  204  A    between atoms: _479  and  _482
REMARK  205  A    between atoms: _482  and  _483
REMARK  206  A    between atoms: _483  and  _484
REMARK  207  A    between atoms: _484  and  _485
REMARK  208  A    between atoms: _494  and  _496
REMARK  209  A    between atoms: _496  and  _497
REMARK  210  A    between atoms: _496  and  _499
REMARK  211  A    between atoms: _499  and  _500
REMARK  212  A    between atoms: _503  and  _505
REMARK  213  A    between atoms: _505  and  _506
REMARK  214  A    between atoms: _505  and  _508
REMARK  215  A    between atoms: _508  and  _509
REMARK  216  A    between atoms: _514  and  _516
REMARK  217  A    between atoms: _516  and  _517
REMARK  218  A    between atoms: _516  and  _519
REMARK  219  A    between atoms: _519  and  _520
REMARK  220  A    between atoms: _523  and  _525
REMARK  221  A    between atoms: _525  and  _526
REMARK  222  A    between atoms: _525  and  _528
REMARK  223  A    between atoms: _531  and  _533
REMARK  224  A    between atoms: _533  and  _534
REMARK  225  A    between atoms: _533  and  _536
REMARK  226  A    between atoms: _536  and  _537
REMARK  227  A    between atoms: _539  and  _541
REMARK  228  A    between atoms: _541  and  _542
REMARK  229  A    between atoms: _541  and  _544
REMARK  230  A    between atoms: _544  and  _545
REMARK  231  A    between atoms: _545  and  _546
REMARK  232  A    between atoms: _546  and  _547
REMARK  233  A    between atoms: _547  and  _548
REMARK  234  A    between atoms: _552  and  _554
REMARK  235  A    between atoms: _554  and  _555
REMARK  236  A    between atoms: _554  and  _557
REMARK  237  A    between atoms: _557  and  _558
REMARK  238  A    between atoms: _561  and  _563
REMARK  239  A    between atoms: _563  and  _564
REMARK  240  A    between atoms: _566  and  _568
REMARK  241  A    between atoms: _568  and  _569
REMARK  242  A    between atoms: _568  and  _571
REMARK  243  A    between atoms: _571  and  _572
REMARK  244  A    between atoms: _575  and  _577
REMARK  245  A    between atoms: _577  and  _578
REMARK  246  A    between atoms: _577  and  _580
REMARK  247  A    between atoms: _580  and  _581
REMARK  248  A    between atoms: _587  and  _589
REMARK  249  A    between atoms: _589  and  _590
REMARK                            x       y       z     vdW  Elec       q    Type
REMARK                         _______ _______ _______ _____ _____    ______ ____
ROOT
ATOM      1  C   ALA A   3       3.374   0.364  18.508  0.00  0.00    +0.241 C 
ATOM      2  N   ILE A   4       3.678   0.820  19.717  0.00  0.00    -0.297 N 
ATOM      3  H   ILE A   4       2.918   1.221  20.303  0.00  0.00    +0.150 HD
ATOM      4  O   ALA A   3       4.225  -0.088  17.736  0.00  0.00    -0.273 OA
ENDROOT
BRANCH   1   5
ATOM      5  CA  ALA A   3       1.913   0.481  18.057  0.00  0.00    +0.149 C 
ATOM      6  CB  ALA A   3       1.264  -0.899  17.995  0.00  0.00    +0.031 C 
BRANCH   5   9
ATOM      7  C   VAL A   2       1.611   2.373  16.463  0.00  0.00    +0.241 C 
ATOM      8  O   VAL A   2       1.187   3.151  17.314  0.00  0.00    -0.273 OA
ATOM      9  N   ALA A   3       1.936   1.094  16.730  0.00  0.00    -0.297 N 
ATOM     10  H   ALA A   3       2.226   0.496  15.930  0.00  0.00    +0.150 HD
BRANCH   7  11
ATOM     11  CA  VAL A   2       1.835   2.846  15.014  0.00  0.00    +0.148 C 
BRANCH  11  13
ATOM     12  C   ALA A   1       0.366   4.133  13.514  0.00  0.00    +0.238 C 
ATOM     13  N   VAL A   2       1.107   4.064  14.635  0.00  0.00    -0.297 N 
ATOM     14  H   VAL A   2       1.166   4.899  15.252  0.00  0.00    +0.150 HD
ATOM     15  O   ALA A   1       0.228   3.172  12.755  0.00  0.00    -0.274 OA
BRANCH  12  16
ATOM     16  CA  ALA A   1      -0.258   5.488  13.124  0.00  0.00    +0.145 C 
ATOM     17  CB  ALA A   1      -1.775   5.442  13.256  0.00  0.00    +0.028 C 
BRANCH  16  18
ATOM     18  N   ALA A   1       0.120   5.700  11.718  0.00  0.00    -0.238 NA
ATOM     19  H   ALA A   1      -0.578   5.486  10.977  0.00  0.00    +0.142 HD
ENDBRANCH  16  18
ENDBRANCH  12  16
ENDBRANCH  11  13
BRANCH  11  20
ATOM     20  CB  VAL A   2       3.361   2.977  14.724  0.00  0.00    +0.027 C 
ATOM     21  CG2 VAL A   2       3.997   4.121  15.500  0.00  0.00    +0.002 C 
ATOM     22  CG1 VAL A   2       3.659   3.093  13.234  0.00  0.00    +0.002 C 
ENDBRANCH  11  20
ENDBRANCH   7  11
ENDBRANCH   5   9
ENDBRANCH   1   5
BRANCH   2  23
ATOM     23  CA  ILE A   4       5.043   0.783  20.264  0.00  0.00    +0.149 C 
BRANCH  23  24
ATOM     24  C   ILE A   4       5.119  -0.127  21.491  0.00  0.00    +0.241 C 
ATOM     25  O   ILE A   4       4.543   0.197  22.517  0.00  0.00    -0.273 OA
ATOM     26  N   LYS A   5       5.860  -1.247  21.385  0.00  0.00    -0.298 N 
ATOM     27  H   LYS A   5       6.318  -1.442  20.472  0.00  0.00    +0.150 HD
BRANCH  26  28
ATOM     28  CA  LYS A   5       6.064  -2.212  22.474  0.00  0.00    +0.137 C 
BRANCH  28  29
ATOM     29  C   LYS A   5       7.327  -1.820  23.193  0.00  0.00    +0.227 C 
ATOM     30  O   LYS A   5       8.385  -1.714  22.572  0.00  0.00    -0.286 OA
ENDBRANCH  28  29
BRANCH  28  31
ATOM     31  CB  LYS A   5       6.224  -3.646  21.961  0.00  0.00    +0.028 C 
BRANCH  31  32
ATOM     32  CG  LYS A   5       5.106  -4.162  21.076  0.00  0.00    -0.000 C 
BRANCH  32  33
ATOM     33  CD  LYS A   5       4.467  -5.399  21.686  0.00  0.00    -0.024 C 
BRANCH  33  34
ATOM     34  CE  LYS A   5       5.303  -6.645  21.551  0.00  0.00    -0.086 C 
BRANCH  34  35
ATOM     35  NZ  LYS A   5       4.739  -7.800  22.308  0.00  0.00    +0.380 N 
ATOM     36  HZ1 LYS A   5       4.686  -7.558  23.318  0.00  0.00    -0.089 HD
ATOM     37  HZ2 LYS A   5       5.353  -8.630  22.180  0.00  0.00    -0.089 HD
ATOM     38  HZ3 LYS A   5       3.786  -8.014  21.951  0.00  0.00    -0.089 HD
ENDBRANCH  34  35
ENDBRANCH  33  34
ENDBRANCH  32  33
ENDBRANCH  31  32
ENDBRANCH  28  31
ENDBRANCH  26  28
ENDBRANCH  23  24
BRANCH  23  39
ATOM     39  CB  ILE A   4       5.622   2.216  20.544  0.00  0.00    +0.027 C 
ATOM     40  CG2 ILE A   4       7.046   2.129  21.111  0.00  0.00    +0.002 C 
BRANCH  39  41
ATOM     41  CG1 ILE A   4       5.583   3.106  19.275  0.00  0.00    +0.002 C 
ATOM     42  CD1 ILE A   4       4.826   4.377  19.422  0.00  0.00    +0.000 C 
ENDBRANCH  39  41
ENDBRANCH  23  39
ENDBRANCH   2  23
TORSDOF 18
REMARK  Name = ../refined-set-2016/4kao/4kao_pocket.pdb
REMARK  249 active torsions:
REMARK  status: ('A' for Active; 'I' for Inactive)
REMARK    1  A    between atoms: _1  and  _3
REMARK    2  A    between atoms: _3  and  _4
REMARK    3  A    between atoms: _3  and  _6
REMARK    4  A    between atoms: _6  and  _7
REMARK    5  A    between atoms: _10  and  _12
REMARK    6  A    between atoms: _12  and  _13
REMARK    7  A    between atoms: _15  and  _17
REMARK    8  A    between atoms: _17  and  _18
REMARK    9  A    between atoms: _17  and  _20
REMARK   10  A    between atoms: _20  and  _21
REMARK   11  A    between atoms: _21  and  _22
REMARK   12  A    between atoms: _27  and  _29
REMARK   13  A    between atoms: _29  and  _30
REMARK   14  A    between atoms: _29  and  _32
REMARK   15  A    between atoms: _32  and  _33
REMARK   16  A    between atoms: _39  and  _41
REMARK   17  A    between atoms: _41  and  _42
REMARK   18  A    between atoms: _41  and  _44
REMARK   19  A    between atoms: _47  and  _49
REMARK   20  A    between atoms: _49  and  _50
REMARK   21  A    between atoms: _49  and  _52
REMARK   22  A    between atoms: _52  and  _53
REMARK   23  A    between atoms: _58  and  _60
REMARK   24  A    between atoms: _60  and  _61
REMARK   25  A    between atoms: _60  and  _63
REMARK   26  A    between atoms: _63  and  _64
REMARK   27  A    between atoms: _64  and  _65
REMARK   28  A    between atoms: _70  and  _72
REMARK   29  A    between atoms: _72  and  _73
REMARK   30  A    between atoms: _76  and  _78
REMARK   31  A    between atoms: _78  and  _79
REMARK   32  A    between atoms: _78  and  _81
REMARK   33  A    between atoms: _84  and  _86
REMARK   34  A    between atoms: _86  and  _87
REMARK   35  A    between atoms: _90  and  _92
REMARK   36  A    between atoms: _92  and  _93
REMARK   37  A    between atoms: _92  and  _95
REMARK   38  A    between atoms: _95  and  _96
REMARK   39  A    between atoms: _99  and  _101
REMARK   40  A    between atoms: _101  and  _102
REMARK   41  A    between atoms: _101  and  _104
REMARK   42  A    between atoms: _104  and  _105
REMARK   43  A    between atoms: _105  and  _106
REMARK   44  A    between atoms: _106  and  _107
REMARK   45  A    between atoms: _107  and  _108
REMARK   46  A    between atoms: _112  and  _114
REMARK   47  A    between atoms: _114  and  _115
REMARK   48  A    between atoms: _114  and  _117
REMARK   49  A    between atoms: _117  and  _118
REMARK   50  A    between atoms: _118  and  _119
REMARK   51  A    between atoms: _122  and  _124
REMARK   52  A    between atoms: _124  and  _125
REMARK   53  A    between atoms: _124  and  _127
REMARK   54  A    between atoms: _127  and  _128
REMARK   55  A    between atoms: _128  and  _129
REMARK   56  A    between atoms: _129  and  _130
REMARK   57  A    between atoms: _130  and  _131
REMARK   58  A    between atoms: _135  and  _137
REMARK   59  A    between atoms: _137  and  _138
REMARK   60  A    between atoms: _137  and  _140
REMARK   61  A    between atoms: _140  and  _141
REMARK   62  A    between atoms: _147  and  _149
REMARK   63  A    between atoms: _149  and  _150
REMARK   64  A    between atoms: _149  and  _152
REMARK   65  A    between atoms: _152  and  _153
REMARK   66  A    between atoms: _156  and  _158
REMARK   67  A    between atoms: _158  and  _159
REMARK   68  A    between atoms: _158  and  _161
REMARK   69  A    between atoms: _161  and  _162
REMARK   70  A    between atoms: _162  and  _163
REMARK   71  A    between atoms: _168  and  _170
REMARK   72  A    between atoms: _170  and  _171
REMARK   73  A    between atoms: _170  and  _173
REMARK   74  A    between atoms: _173  and  _174
REMARK   75  A    between atoms: _174  and  _175
REMARK   76  A    between atoms: _178  and  _180
REMARK   77  A    between atoms: _180  and  _181
REMARK   78  A    between atoms: _184  and  _186
REMARK   79  A    between atoms: _186  and  _187
REMARK   80  A    between atoms: _186  and  _189
REMARK   81  A    between atoms: _189  and  _190
REMARK   82  A    between atoms: _193  and  _195
REMARK   83  A    between atoms: _195  and  _196
REMARK   84  A    between atoms: _195  and  _198
REMARK   85  A    between atoms: _198  and  _199
REMARK   86  A    between atoms: _202  and  _204
REMARK   87  A    between atoms: _204  and  _205
REMARK   88  A    between atoms: _204  and  _207
REMARK   89  A    between atoms: _207  and  _208
REMARK   90  A    between atoms: _208  and  _209
REMARK   91  A    between atoms: _211  and  _213
REMARK   92  A    between atoms: _213  and  _214
REMARK   93  A    between atoms: _213  and  _216
REMARK   94  A    between atoms: _216  and  _217
REMARK   95  A    between atoms: _217  and  _218
REMARK   96  A    between atoms: _218  and  _219
REMARK   97  A    between atoms: _228  and  _230
REMARK   98  A    between atoms: _230  and  _231
REMARK   99  A    between atoms: _230  and  _233
REMARK  100  A    between atoms: _233  and  _234
REMARK  101  A    between atoms: _234  and  _235
REMARK  102  A    between atoms: _240  and  _242
REMARK  103  A    between atoms: _242  and  _243
REMARK  104  A    between atoms: _242  and  _245
REMARK  105  A    between atoms: _245  and  _246
REMARK  106  A    between atoms: _252  and  _254
REMARK  107  A    between atoms: _254  and  _255
REMARK  108  A    between atoms: _254  and  _257
REMARK  109  A    between atoms: _257  and  _258
REMARK  110  A    between atoms: _261  and  _263
REMARK  111  A    between atoms: _263  and  _264
REMARK  112  A    between atoms: _263  and  _266
REMARK  113  A    between atoms: _266  and  _267
REMARK  114  A    between atoms: _272  and  _274
REMARK  115  A    between atoms: _274  and  _275
REMARK  116  A    between atoms: _274  and  _277
REMARK  117  A    between atoms: _277  and  _278
REMARK  118  A    between atoms: _283  and  _285
REMARK  119  A    between atoms: _285  and  _286
REMARK  120  A    between atoms: _285  and  _288
REMARK  121  A    between atoms: _288  and  _289
REMARK  122  A    between atoms: _292  and  _294
REMARK  123  A    between atoms: _294  and  _295
REMARK  124  A    between atoms: _294  and  _297
REMARK  125  A    between atoms: _300  and  _302
REMARK  126  A    between atoms: _302  and  _303
REMARK  127  A    between atoms: _302  and  _305
REMARK  128  A    between atoms: _305  and  _306
REMARK  129  A    between atoms: _306  and  _307
REMARK  130  A    between atoms: _307  and  _308
REMARK  131  A    between atoms: _308  and  _309
REMARK  132  A    between atoms: _313  and  _315
REMARK  133  A    between atoms: _315  and  _316
REMARK  134  A    between atoms: _315  and  _318
REMARK  135  A    between atoms: _318  and  _319
REMARK  136  A    between atoms: _322  and  _324
REMARK  137  A    between atoms: _324  and  _325
REMARK  138  A    between atoms: _324  and  _327
REMARK  139  A    between atoms: _327  and  _328
REMARK  140  A    between atoms: _331  and  _333
REMARK  141  A    between atoms: _333  and  _334
REMARK  142  A    between atoms: _333  and  _336
REMARK  143  A    between atoms: _336  and  _337
REMARK  144  A    between atoms: _340  and  _342
REMARK  145  A    between atoms: _342  and  _343
REMARK  146  A    between atoms: _342  and  _345
REMARK  147  A    between atoms: _345  and  _346
REMARK  148  A    between atoms: _346  and  _347
REMARK  149  A    between atoms: _349  and  _351
REMARK  150  A    between atoms: _351  and  _352
REMARK  151  A    between atoms: _351  and  _354
REMARK  152  A    between atoms: _354  and  _355
REMARK  153  A    between atoms: _355  and  _356
REMARK  154  A    between atoms: _359  and  _361
REMARK  155  A    between atoms: _361  and  _362
REMARK  156  A    between atoms: _361  and  _364
REMARK  157  A    between atoms: _364  and  _365
REMARK  158  A    between atoms: _368  and  _370
REMARK  159  A    between atoms: _370  and  _371
REMARK  160  A    between atoms: _370  and  _373
REMARK  161  A    between atoms: _375  and  _377
REMARK  162  A    between atoms: _377  and  _378
REMARK  163  A    between atoms: _377  and  _380
REMARK  164  A    between atoms: _380  and  _381
REMARK  165  A    between atoms: _384  and  _386
REMARK  166  A    between atoms: _386  and  _387
REMARK  167  A    between atoms: _386  and  _389
REMARK  168  A    between atoms: _389  and  _390
REMARK  169  A    between atoms: _393  and  _395
REMARK  170  A    between atoms: _395  and  _396
REMARK  171  A    between atoms: _398  and  _400
REMARK  172  A    between atoms: _400  and  _401
REMARK  173  A    between atoms: _400  and  _403
REMARK  174  A    between atoms: _403  and  _404
REMARK  175  A    between atoms: _404  and  _405
REMARK  176  A    between atoms: _408  and  _410
REMARK  177  A    between atoms: _410  and  _411
REMARK  178  A    between atoms: _414  and  _416
REMARK  179  A    between atoms: _416  and  _417
REMARK  180  A    between atoms: _416  and  _419
REMARK  181  A    between atoms: _419  and  _420
REMARK  182  A    between atoms: _423  and  _425
REMARK  183  A    between atoms: _425  and  _426
REMARK  184  A    between atoms: _425  and  _428
REMARK  185  A    between atoms: _428  and  _429
REMARK  186  A    between atoms: _434  and  _435
REMARK  187  A    between atoms: _437  and  _439
REMARK  188  A    between atoms: _439  and  _440
REMARK  189  A    between atoms: _439  and  _442
REMARK  190  A    between atoms: _442  and  _443
REMARK  191  A    between atoms: _446  and  _448
REMARK  192  A    between atoms: _448  and  _449
REMARK  193  A    between atoms: _448  and  _451
REMARK  194  A    between atoms: _451  and  _452
REMARK  195  A    between atoms: _458  and  _460
REMARK  196  A    between atoms: _460  and  _461
REMARK  197  A    between atoms: _460  and  _463
REMARK  198  A    between atoms: _466  and  _468
REMARK  199  A    between atoms: _468  and  _469
REMARK  200  A    between atoms: _468  and  _471
REMARK  201  A    between atoms: _471  and  _472
REMARK  202  A    between atoms: _477  and  _479
REMARK  203  A    between atoms: _479  and  _480
REMARK  204  A    between atoms: _479  and  _482
REMARK  205  A    between atoms: _482  and  _483
REMARK  206  A    between atoms: _483  and  _484
REMARK  207  A    between atoms: _484  and  _485
REMARK  208  A    between atoms: _494  and  _496
REMARK  209  A    between atoms: _496  and  _497
REMARK  210  A    between atoms: _496  and  _499
REMARK  211  A    between atoms: _499  and  _500
REMARK  212  A    between atoms: _503  and  _505
REMARK  213  A    between atoms: _505  and  _506
REMARK  214  A    between atoms: _505  and  _508
REMARK  215  A    between atoms: _508  and  _509
REMARK  216  A    between atoms: _514  and  _516
REMARK  217  A    between atoms: _516  and  _517
REMARK  218  A    between atoms: _516  and  _519
REMARK  219  A    between atoms: _519  and  _520
REMARK  220  A    between atoms: _523  and  _525
REMARK  221  A    between atoms: _525  and  _526
REMARK  222  A    between atoms: _525  and  _528
REMARK  223  A    between atoms: _531  and  _533
REMARK  224  A    between atoms: _533  and  _534
REMARK  225  A    between atoms: _533  and  _536
REMARK  226  A    between atoms: _536  and  _537
REMARK  227  A    between atoms: _539  and  _541
REMARK  228  A    between atoms: _541  and  _542
REMARK  229  A    between atoms: _541  and  _544
REMARK  230  A    between atoms: _544  and  _545
REMARK  231  A    between atoms: _545  and  _546
REMARK  232  A    between atoms: _546  and  _547
REMARK  233  A    between atoms: _547  and  _548
REMARK  234  A    between atoms: _552  and  _554
REMARK  235  A    between atoms: _554  and  _555
REMARK  236  A    between atoms: _554  and  _557
REMARK  237  A    between atoms: _557  and  _558
REMARK  238  A    between atoms: _561  and  _563
REMARK  239  A    between atoms: _563  and  _564
REMARK  240  A    between atoms: _566  and  _568
REMARK  241  A    between atoms: _568  and  _569
REMARK  242  A    between atoms: _568  and  _571
REMARK  243  A    between atoms: _571  and  _572
REMARK  244  A    between atoms: _575  and  _577
REMARK  245  A    between atoms: _577  and  _578
REMARK  246  A    between atoms: _577  and  _580
REMARK  247  A    between atoms: _580  and  _581
REMARK  248  A    between atoms: _587  and  _589
REMARK  249  A    between atoms: _589  and  _590
REMARK                            x       y       z     vdW  Elec       q    Type
REMARK                         _______ _______ _______ _____ _____    ______ ____
ROOT
ATOM      1  C   LEU A   8      12.583 -12.202  13.405  0.00  0.00    +0.241 C 
ATOM      2  N   THR A   9      11.533 -12.739  14.063  0.00  0.00    -0.295 N 
ATOM      3  H   THR A   9      11.419 -12.482  15.064  0.00  0.00    +0.150 HD
ATOM      4  O   LEU A   8      12.816 -12.407  12.216  0.00  0.00    -0.273 OA
ENDROOT
BRANCH   1   5
ATOM      5  CA  LEU A   8      13.498 -11.283  14.205  0.00  0.00    +0.149 C 
BRANCH   5   7
ATOM      6  C   ALA A   7      11.777  -9.448  14.538  0.00  0.00    +0.241 C 
ATOM      7  N   LEU A   8      12.704 -10.334  15.001  0.00  0.00    -0.297 N 
ATOM      8  H   LEU A   8      12.868 -10.340  16.028  0.00  0.00    +0.150 HD
ATOM      9  O   ALA A   7      11.484  -9.315  13.348  0.00  0.00    -0.273 OA
BRANCH   6  10
ATOM     10  CA  ALA A   7      11.074  -8.582  15.570  0.00  0.00    +0.149 C 
ATOM     11  CB  ALA A   7      11.975  -7.431  15.972  0.00  0.00    +0.031 C 
BRANCH  10  13
ATOM     12  C   GLU A   6       9.797 -10.367  16.763  0.00  0.00    +0.241 C 
ATOM     13  N   ALA A   7      10.695  -9.358  16.751  0.00  0.00    -0.297 N 
ATOM     14  H   ALA A   7      11.153  -9.114  17.652  0.00  0.00    +0.150 HD
ATOM     15  O   GLU A   6       9.188 -10.754  15.764  0.00  0.00    -0.273 OA
BRANCH  12  16
ATOM     16  CA  GLU A   6       9.550 -11.057  18.096  0.00  0.00    +0.149 C 
BRANCH  16  18
ATOM     17  C   GLN A   5      11.763 -12.094  18.248  0.00  0.00    +0.241 C 
ATOM     18  N   GLU A   6      10.795 -11.350  18.784  0.00  0.00    -0.297 N 
ATOM     19  H   GLU A   6      10.938 -10.962  19.738  0.00  0.00    +0.150 HD
ATOM     20  O   GLN A   5      11.682 -12.560  17.112  0.00  0.00    -0.273 OA
BRANCH  17  21
ATOM     21  CA  GLN A   5      13.054 -12.265  19.074  0.00  0.00    +0.149 C 
BRANCH  21  23
ATOM     22  C   LEU A   4      13.527  -9.837  19.340  0.00  0.00    +0.241 C 
ATOM     23  N   GLN A   5      13.305 -11.063  19.874  0.00  0.00    -0.297 N 
ATOM     24  H   GLN A   5      13.313 -11.156  20.910  0.00  0.00    +0.150 HD
ATOM     25  O   LEU A   4      13.509  -9.622  18.131  0.00  0.00    -0.273 OA
BRANCH  22  26
ATOM     26  CA  LEU A   4      13.706  -8.640  20.281  0.00  0.00    +0.149 C 
BRANCH  26  28
ATOM     27  C   PHE A   3      12.126  -9.038  22.114  0.00  0.00    +0.241 C 
ATOM     28  N   LEU A   4      13.383  -8.927  21.676  0.00  0.00    -0.297 N 
ATOM     29  H   LEU A   4      14.162  -9.050  22.354  0.00  0.00    +0.150 HD
ATOM     30  O   PHE A   3      11.140  -8.950  21.373  0.00  0.00    -0.273 OA
BRANCH  27  31
ATOM     31  CA  PHE A   3      11.940  -9.315  23.607  0.00  0.00    +0.153 C 
BRANCH  31  33
ATOM     32  C   LYS A   2      12.605 -11.715  23.671  0.00  0.00    +0.241 C 
ATOM     33  N   PHE A   3      12.767 -10.430  24.055  0.00  0.00    -0.297 N 
ATOM     34  H   PHE A   3      13.539 -10.220  24.720  0.00  0.00    +0.150 HD
ATOM     35  O   LYS A   2      11.720 -12.089  22.895  0.00  0.00    -0.273 OA
BRANCH  32  36
ATOM     36  CA  LYS A   2      13.589 -12.728  24.271  0.00  0.00    +0.149 C 
BRANCH  36  38
ATOM     37  C   GLU A   1      15.671 -11.885  23.235  0.00  0.00    +0.238 C 
ATOM     38  N   LYS A   2      14.950 -12.189  24.327  0.00  0.00    -0.297 N 
ATOM     39  H   LYS A   2      15.381 -12.034  25.261  0.00  0.00    +0.150 HD
ATOM     40  O   GLU A   1      15.274 -12.049  22.081  0.00  0.00    -0.274 OA
BRANCH  37  41
ATOM     41  CA  GLU A   1      17.058 -11.335  23.469  0.00  0.00    +0.145 C 
BRANCH  41  42
ATOM     42  N   GLU A   1      17.029 -10.238  24.433  0.00  0.00    -0.238 NA
ATOM     43  H   GLU A   1      17.574 -10.362  25.310  0.00  0.00    +0.142 HD
ENDBRANCH  41  42
BRANCH  41  44
ATOM     44  CB  GLU A   1      18.021 -12.455  23.917  0.00  0.00    +0.038 C 
BRANCH  44  45
ATOM     45  CG  GLU A   1      18.309 -13.496  22.839  0.00  0.00    +0.116 C 
BRANCH  45  46
ATOM     46  CD  GLU A   1      17.513 -14.785  22.954  0.00  0.00    +0.365 C 
ATOM     47  OE2 GLU A   1      17.787 -15.562  23.898  0.00  0.00    -0.246 OA
ATOM     48  OE1 GLU A   1      16.674 -15.058  22.060  0.00  0.00    -0.246 OA
ENDBRANCH  45  46
ENDBRANCH  44  45
ENDBRANCH  41  44
ENDBRANCH  37  41
ENDBRANCH  36  38
BRANCH  36  49
ATOM     49  CB  LYS A   2      13.128 -13.151  25.678  0.00  0.00    +0.029 C 
BRANCH  49  50
ATOM     50  CG  LYS A   2      13.539 -14.566  26.082  0.00  0.00    +0.000 C 
BRANCH  50  51
ATOM     51  CD  LYS A   2      12.696 -15.091  27.272  0.00  0.00    -0.024 C 
BRANCH  51  52
ATOM     52  CE  LYS A   2      11.395 -15.793  26.875  0.00  0.00    -0.086 C 
BRANCH  52  53
ATOM     53  NZ  LYS A   2      10.239 -15.429  27.748  0.00  0.00    +0.380 N 
ATOM     54  HZ1 LYS A   2      10.452 -15.694  28.731  0.00  0.00    -0.089 HD
ATOM     55  HZ2 LYS A   2      10.073 -14.404  27.692  0.00  0.00    -0.089 HD
ATOM     56  HZ3 LYS A   2       9.390 -15.937  27.427  0.00  0.00    -0.089 HD
ENDBRANCH  52  53
ENDBRANCH  51  52
ENDBRANCH  50  51
ENDBRANCH  49  50
ENDBRANCH  36  49
ENDBRANCH  32  36
ENDBRANCH  31  33
BRANCH  31  57
ATOM     57  CB  PHE A   3      12.205  -8.055  24.467  0.00  0.00    +0.055 C 
BRANCH  57  58
ATOM     58  CG  PHE A   3      11.408  -6.845  24.051  0.00  0.00    -0.020 A 
ATOM     59  CD2 PHE A   3      10.038  -6.780  24.284  0.00  0.00    -0.004 A 
ATOM     60  CE2 PHE A   3       9.289  -5.679  23.865  0.00  0.00    -0.000 A 
ATOM     61  CZ  PHE A   3       9.912  -4.629  23.226  0.00  0.00    -0.000 A 
ATOM     62  CE1 PHE A   3      11.274  -4.673  22.985  0.00  0.00    -0.000 A 
ATOM     63  CD1 PHE A   3      12.020  -5.781  23.395  0.00  0.00    -0.004 A 
ENDBRANCH  57  58
ENDBRANCH  31  57
ENDBRANCH  27  31
ENDBRANCH  26  28
BRANCH  26  64
ATOM     64  CB  LEU A   4      15.099  -8.004  20.128  0.00  0.00    +0.029 C 
BRANCH  64  65
ATOM     65  CG  LEU A   4      15.227  -6.592  20.732  0.00  0.00    +0.002 C 
ATOM     66  CD2 LEU A   4      16.586  -6.035  20.527  0.00  0.00    +0.000 C 
ATOM     67  CD1 LEU A   4      14.202  -5.627  20.161  0.00  0.00    +0.000 C 
ENDBRANCH  64  65
ENDBRANCH  26  64
ENDBRANCH  22  26
ENDBRANCH  21  23
BRANCH  21  68
ATOM     68  CB  GLN A   5      13.022 -13.530  19.967  0.00  0.00    +0.039 C 
BRANCH  68  69
ATOM     69  CG  GLN A   5      12.888 -14.868  19.204  0.00  0.00    +0.087 C 
BRANCH  69  70
ATOM     70  CD  GLN A   5      13.823 -15.036  18.011  0.00  0.00    +0.219 C 
ATOM     71  NE2 GLN A   5      15.107 -15.174  18.293  0.00  0.00    -0.329 N 
ATOM     72 HE21 GLN A   5      15.426 -15.168  19.283  0.00  0.00    +0.145 HD
ATOM     73 HE22 GLN A   5      15.799 -15.289  17.525  0.00  0.00    +0.145 HD
ATOM     74  OE1 GLN A   5      13.407 -15.039  16.835  0.00  0.00    -0.275 OA
ENDBRANCH  69  70
ENDBRANCH  68  69
ENDBRANCH  21  68
ENDBRANCH  17  21
ENDBRANCH  16  18
BRANCH  16  75
ATOM     75  CB  GLU A   6       8.669 -10.194  18.979  0.00  0.00    +0.041 C 
BRANCH  75  76
ATOM     76  CG  GLU A   6       7.331  -9.845  18.349  0.00  0.00    +0.116 C 
BRANCH  76  77
ATOM     77  CD  GLU A   6       6.213  -9.564  19.329  0.00  0.00    +0.365 C 
ATOM     78  OE2 GLU A   6       6.484  -9.447  20.545  0.00  0.00    -0.246 OA
ATOM     79  OE1 GLU A   6       5.046  -9.531  18.884  0.00  0.00    -0.246 OA
ENDBRANCH  76  77
ENDBRANCH  75  76
ENDBRANCH  16  75
ENDBRANCH  12  16
ENDBRANCH  10  13
ENDBRANCH   6  10
ENDBRANCH   5   7
BRANCH   5  80
ATOM     80  CB  LEU A   8      14.378 -12.137  15.130  0.00  0.00    +0.029 C 
BRANCH  80  81
ATOM     81  CG  LEU A   8      15.884 -11.829  15.176  0.00  0.00    +0.002 C 
ATOM     82  CD2 LEU A   8      16.585 -12.712  16.220  0.00  0.00    +0.000 C 
ATOM     83  CD1 LEU A   8      16.135 -10.376  15.544  0.00  0.00    +0.000 C 
ENDBRANCH  80  81
ENDBRANCH   5  80
ENDBRANCH   1   5
BRANCH   2  84
ATOM     84  CA  THR A   9      10.545 -13.648  13.493  0.00  0.00    +0.176 C 
BRANCH  84  85
ATOM     85  C   THR A   9       9.617 -12.932  12.500  0.00  0.00    +0.243 C 
ATOM     86  N   MET A  10       9.031 -11.800  12.915  0.00  0.00    -0.297 N 
ATOM     87  H   MET A  10       9.257 -11.462  13.872  0.00  0.00    +0.150 HD
ATOM     88  O   THR A   9       9.426 -13.418  11.381  0.00  0.00    -0.273 OA
BRANCH  86  89
ATOM     89  CA  MET A  10       8.090 -11.001  12.112  0.00  0.00    +0.149 C 
BRANCH  89  90
ATOM     90  C   MET A  10       8.666 -10.370  10.833  0.00  0.00    +0.241 C 
ATOM     91  N   ARG A  11       9.983 -10.125  10.796  0.00  0.00    -0.297 N 
ATOM     92  H   ARG A  11      10.562 -10.411  11.611  0.00  0.00    +0.150 HD
ATOM     93  O   MET A  10       7.898 -10.066   9.912  0.00  0.00    -0.273 OA
BRANCH  91  94
ATOM     94  CA  ARG A  11      10.649  -9.474   9.664  0.00  0.00    +0.149 C 
BRANCH  94  95
ATOM     95  C   ARG A  11      10.453 -10.174   8.294  0.00  0.00    +0.241 C 
ATOM     96  N   GLN A  12      10.430 -11.517   8.278  0.00  0.00    -0.297 N 
ATOM     97  H   GLN A  12      10.490 -12.016   9.188  0.00  0.00    +0.150 HD
ATOM     98  O   ARG A  11      10.318  -9.496   7.276  0.00  0.00    -0.273 OA
BRANCH  96  99
ATOM     99  CA  GLN A  12      10.325 -12.328   7.051  0.00  0.00    +0.149 C 
BRANCH  99 100
ATOM    100  C   GLN A  12       8.959 -12.280   6.347  0.00  0.00    +0.241 C 
ATOM    101  N   PHE A  13       7.914 -11.825   7.036  0.00  0.00    -0.297 N 
ATOM    102  H   PHE A  13       8.078 -11.466   7.998  0.00  0.00    +0.150 HD
ATOM    103  O   GLN A  12       8.881 -12.624   5.170  0.00  0.00    -0.273 OA
BRANCH 101 104
ATOM    104  CA  PHE A  13       6.558 -11.803   6.517  0.00  0.00    +0.153 C 
BRANCH 104 105
ATOM    105  C   PHE A  13       6.093 -10.436   5.994  0.00  0.00    +0.241 C 
ATOM    106  O   PHE A  13       6.457  -9.384   6.532  0.00  0.00    -0.273 OA
ATOM    107  N   ASP A  14       5.317 -10.481   4.885  0.00  0.00    -0.297 N 
ATOM    108  H   ASP A  14       5.121 -11.416   4.474  0.00  0.00    +0.150 HD
BRANCH 107 109
ATOM    109  CA  ASP A  14       4.737  -9.324   4.225  0.00  0.00    +0.160 C 
BRANCH 109 110
ATOM    110  C   ASP A  14       3.411  -9.747   3.582  0.00  0.00    +0.241 C 
ATOM    111  N   HIS A  15       2.300  -9.472   4.275  0.00  0.00    -0.298 N 
ATOM    112  H   HIS A  15       2.397  -8.996   5.195  0.00  0.00    +0.150 HD
ATOM    113  O   ASP A  14       3.396 -10.317   2.488  0.00  0.00    -0.273 OA
BRANCH 111 114
ATOM    114  CA  HIS A  15       0.958  -9.807   3.805  0.00  0.00    +0.143 C 
BRANCH 114 115
ATOM    115  C   HIS A  15      -0.072  -8.755   4.295  0.00  0.00    +0.227 C 
ATOM    116  O   HIS A  15       0.032  -8.343   5.452  0.00  0.00    -0.286 OA
ENDBRANCH 114 115
BRANCH 114 117
ATOM    117  CB  HIS A  15       0.563 -11.226   4.265  0.00  0.00    +0.075 C 
BRANCH 117 118
ATOM    118  CG  HIS A  15      -0.689 -11.719   3.613  0.00  0.00    +0.082 A 
ATOM    119  ND1 HIS A  15      -1.937 -11.502   4.182  0.00  0.00    -0.227 NA
ATOM    120  CE1 HIS A  15      -2.807 -11.979   3.314  0.00  0.00    +0.199 A 
ATOM    121  NE2 HIS A  15      -2.202 -12.465   2.233  0.00  0.00    -0.221 NA
ATOM    122  CD2 HIS A  15      -0.862 -12.273   2.391  0.00  0.00    +0.115 A 
ENDBRANCH 117 118
ENDBRANCH 114 117
ENDBRANCH 111 114
ENDBRANCH 109 110
BRANCH 109 123
ATOM    123  CB  ASP A  14       5.716  -8.719   3.193  0.00  0.00    +0.143 C 
BRANCH 123 124
ATOM    124  CG  ASP A  14       5.222  -7.479   2.461  0.00  0.00    +0.367 C 
ATOM    125  OD2 ASP A  14       4.374  -6.738   3.031  0.00  0.00    -0.246 OA
ATOM    126  OD1 ASP A  14       5.694  -7.235   1.332  0.00  0.00    -0.246 OA
ENDBRANCH 123 124
ENDBRANCH 109 123
ENDBRANCH 107 109
ENDBRANCH 104 105
BRANCH 104 127
ATOM    127  CB  PHE A  13       5.592 -12.375   7.558  0.00  0.00    +0.055 C 
BRANCH 127 128
ATOM    128  CG  PHE A  13       5.993 -13.784   7.968  0.00  0.00    -0.020 A 
ATOM    129  CD2 PHE A  13       6.303 -14.081   9.292  0.00  0.00    -0.004 A 
ATOM    130  CE2 PHE A  13       6.665 -15.380   9.668  0.00  0.00    -0.000 A 
ATOM    131  CZ  PHE A  13       6.784 -16.368   8.707  0.00  0.00    -0.000 A 
ATOM    132  CE1 PHE A  13       6.526 -16.081   7.383  0.00  0.00    -0.000 A 
ATOM    133  CD1 PHE A  13       6.145 -14.793   7.012  0.00  0.00    -0.004 A 
ENDBRANCH 127 128
ENDBRANCH 104 127
ENDBRANCH 101 104
ENDBRANCH  99 100
BRANCH  99 134
ATOM    134  CB  GLN A  12      10.743 -13.789   7.322  0.00  0.00    +0.039 C 
BRANCH 134 135
ATOM    135  CG  GLN A  12       9.859 -14.522   8.315  0.00  0.00    +0.087 C 
BRANCH 135 136
ATOM    136  CD  GLN A  12      10.474 -15.796   8.854  0.00  0.00    +0.219 C 
ATOM    137  OE1 GLN A  12      10.611 -15.981  10.077  0.00  0.00    -0.275 OA
ATOM    138  NE2 GLN A  12      10.809 -16.725   7.962  0.00  0.00    -0.329 N 
ATOM    139 HE21 GLN A  12      11.197 -17.636   8.281  0.00  0.00    +0.145 HD
ATOM    140 HE22 GLN A  12      10.683 -16.540   6.946  0.00  0.00    +0.145 HD
ENDBRANCH 135 136
ENDBRANCH 134 135
ENDBRANCH  99 134
ENDBRANCH  96  99
ENDBRANCH  94  95
BRANCH  94 141
ATOM    141  CB  ARG A  11      12.144  -9.291   9.965  0.00  0.00    +0.033 C 
BRANCH 141 142
ATOM    142  CG  ARG A  11      12.707  -7.995   9.398  0.00  0.00    +0.045 C 
BRANCH 142 143
ATOM    143  CD  ARG A  11      14.043  -7.625  10.019  0.00  0.00    +0.174 C 
BRANCH 143 144
ATOM    144  NE  ARG A  11      15.160  -8.345   9.405  0.00  0.00    -0.265 N 
ATOM    145  HE  ARG A  11      15.450  -9.247   9.834  0.00  0.00    +0.259 HD
ATOM    146  CZ  ARG A  11      15.829  -7.923   8.335  0.00  0.00    +0.342 C 
ATOM    147  NH2 ARG A  11      16.833  -8.642   7.850  0.00  0.00    -0.292 N 
ATOM    148 HH21 ARG A  11      17.099  -9.538   8.306  0.00  0.00    +0.255 HD
ATOM    149 HH22 ARG A  11      17.354  -8.310   7.014  0.00  0.00    +0.255 HD
ATOM    150  NH1 ARG A  11      15.494  -6.787   7.736  0.00  0.00    -0.292 N 
ATOM    151 HH11 ARG A  11      14.703  -6.219   8.102  0.00  0.00    +0.255 HD
ATOM    152 HH12 ARG A  11      16.022  -6.464   6.900  0.00  0.00    +0.255 HD
ENDBRANCH 143 144
ENDBRANCH 142 143
ENDBRANCH 141 142
ENDBRANCH  94 141
ENDBRANCH  91  94
ENDBRANCH  89  90
BRANCH  89 153
ATOM    153  CB  MET A  10       7.485  -9.902  12.972  0.00  0.00    +0.041 C 
BRANCH 153 154
ATOM    154  CG  MET A  10       6.446 -10.399  13.924  0.00  0.00    +0.060 C 
BRANCH 154 155
ATOM    155  SD  MET A  10       5.832  -9.065  14.978  0.00  0.00    -0.139 S 
ATOM    156  CE  MET A  10       4.672  -8.261  13.889  0.00  0.00    +0.069 C 
ENDBRANCH 154 155
ENDBRANCH 153 154
ENDBRANCH  89 153
ENDBRANCH  86  89
ENDBRANCH  84  85
BRANCH  84 157
ATOM    157  CB  THR A   9       9.788 -14.350  14.622  0.00  0.00    +0.137 C 
ATOM    158  CG2 THR A   9       8.728 -15.309  14.112  0.00  0.00    +0.034 C 
BRANCH 157 159
ATOM    159  OG1 THR A   9      10.718 -15.065  15.433  0.00  0.00    -0.382 OA
ATOM    160  HG1 THR A   9      11.376 -14.432  15.816  0.00  0.00    +0.210 HD
ENDBRANCH 157 159
ENDBRANCH  84 157
ENDBRANCH   2  84
TORSDOF 68
REMARK  Name = ../refined-set-2016/4kao/4kao_pocket.pdb
REMARK  249 active torsions:
REMARK  status: ('A' for Active; 'I' for Inactive)
REMARK    1  A    between atoms: _1  and  _3
REMARK    2  A    between atoms: _3  and  _4
REMARK    3  A    between atoms: _3  and  _6
REMARK    4  A    between atoms: _6  and  _7
REMARK    5  A    between atoms: _10  and  _12
REMARK    6  A    between atoms: _12  and  _13
REMARK    7  A    between atoms: _15  and  _17
REMARK    8  A    between atoms: _17  and  _18
REMARK    9  A    between atoms: _17  and  _20
REMARK   10  A    between atoms: _20  and  _21
REMARK   11  A    between atoms: _21  and  _22
REMARK   12  A    between atoms: _27  and  _29
REMARK   13  A    between atoms: _29  and  _30
REMARK   14  A    between atoms: _29  and  _32
REMARK   15  A    between atoms: _32  and  _33
REMARK   16  A    between atoms: _39  and  _41
REMARK   17  A    between atoms: _41  and  _42
REMARK   18  A    between atoms: _41  and  _44
REMARK   19  A    between atoms: _47  and  _49
REMARK   20  A    between atoms: _49  and  _50
REMARK   21  A    between atoms: _49  and  _52
REMARK   22  A    between atoms: _52  and  _53
REMARK   23  A    between atoms: _58  and  _60
REMARK   24  A    between atoms: _60  and  _61
REMARK   25  A    between atoms: _60  and  _63
REMARK   26  A    between atoms: _63  and  _64
REMARK   27  A    between atoms: _64  and  _65
REMARK   28  A    between atoms: _70  and  _72
REMARK   29  A    between atoms: _72  and  _73
REMARK   30  A    between atoms: _76  and  _78
REMARK   31  A    between atoms: _78  and  _79
REMARK   32  A    between atoms: _78  and  _81
REMARK   33  A    between atoms: _84  and  _86
REMARK   34  A    between atoms: _86  and  _87
REMARK   35  A    between atoms: _90  and  _92
REMARK   36  A    between atoms: _92  and  _93
REMARK   37  A    between atoms: _92  and  _95
REMARK   38  A    between atoms: _95  and  _96
REMARK   39  A    between atoms: _99  and  _101
REMARK   40  A    between atoms: _101  and  _102
REMARK   41  A    between atoms: _101  and  _104
REMARK   42  A    between atoms: _104  and  _105
REMARK   43  A    between atoms: _105  and  _106
REMARK   44  A    between atoms: _106  and  _107
REMARK   45  A    between atoms: _107  and  _108
REMARK   46  A    between atoms: _112  and  _114
REMARK   47  A    between atoms: _114  and  _115
REMARK   48  A    between atoms: _114  and  _117
REMARK   49  A    between atoms: _117  and  _118
REMARK   50  A    between atoms: _118  and  _119
REMARK   51  A    between atoms: _122  and  _124
REMARK   52  A    between atoms: _124  and  _125
REMARK   53  A    between atoms: _124  and  _127
REMARK   54  A    between atoms: _127  and  _128
REMARK   55  A    between atoms: _128  and  _129
REMARK   56  A    between atoms: _129  and  _130
REMARK   57  A    between atoms: _130  and  _131
REMARK   58  A    between atoms: _135  and  _137
REMARK   59  A    between atoms: _137  and  _138
REMARK   60  A    between atoms: _137  and  _140
REMARK   61  A    between atoms: _140  and  _141
REMARK   62  A    between atoms: _147  and  _149
REMARK   63  A    between atoms: _149  and  _150
REMARK   64  A    between atoms: _149  and  _152
REMARK   65  A    between atoms: _152  and  _153
REMARK   66  A    between atoms: _156  and  _158
REMARK   67  A    between atoms: _158  and  _159
REMARK   68  A    between atoms: _158  and  _161
REMARK   69  A    between atoms: _161  and  _162
REMARK   70  A    between atoms: _162  and  _163
REMARK   71  A    between atoms: _168  and  _170
REMARK   72  A    between atoms: _170  and  _171
REMARK   73  A    between atoms: _170  and  _173
REMARK   74  A    between atoms: _173  and  _174
REMARK   75  A    between atoms: _174  and  _175
REMARK   76  A    between atoms: _178  and  _180
REMARK   77  A    between atoms: _180  and  _181
REMARK   78  A    between atoms: _184  and  _186
REMARK   79  A    between atoms: _186  and  _187
REMARK   80  A    between atoms: _186  and  _189
REMARK   81  A    between atoms: _189  and  _190
REMARK   82  A    between atoms: _193  and  _195
REMARK   83  A    between atoms: _195  and  _196
REMARK   84  A    between atoms: _195  and  _198
REMARK   85  A    between atoms: _198  and  _199
REMARK   86  A    between atoms: _202  and  _204
REMARK   87  A    between atoms: _204  and  _205
REMARK   88  A    between atoms: _204  and  _207
REMARK   89  A    between atoms: _207  and  _208
REMARK   90  A    between atoms: _208  and  _209
REMARK   91  A    between atoms: _211  and  _213
REMARK   92  A    between atoms: _213  and  _214
REMARK   93  A    between atoms: _213  and  _216
REMARK   94  A    between atoms: _216  and  _217
REMARK   95  A    between atoms: _217  and  _218
REMARK   96  A    between atoms: _218  and  _219
REMARK   97  A    between atoms: _228  and  _230
REMARK   98  A    between atoms: _230  and  _231
REMARK   99  A    between atoms: _230  and  _233
REMARK  100  A    between atoms: _233  and  _234
REMARK  101  A    between atoms: _234  and  _235
REMARK  102  A    between atoms: _240  and  _242
REMARK  103  A    between atoms: _242  and  _243
REMARK  104  A    between atoms: _242  and  _245
REMARK  105  A    between atoms: _245  and  _246
REMARK  106  A    between atoms: _252  and  _254
REMARK  107  A    between atoms: _254  and  _255
REMARK  108  A    between atoms: _254  and  _257
REMARK  109  A    between atoms: _257  and  _258
REMARK  110  A    between atoms: _261  and  _263
REMARK  111  A    between atoms: _263  and  _264
REMARK  112  A    between atoms: _263  and  _266
REMARK  113  A    between atoms: _266  and  _267
REMARK  114  A    between atoms: _272  and  _274
REMARK  115  A    between atoms: _274  and  _275
REMARK  116  A    between atoms: _274  and  _277
REMARK  117  A    between atoms: _277  and  _278
REMARK  118  A    between atoms: _283  and  _285
REMARK  119  A    between atoms: _285  and  _286
REMARK  120  A    between atoms: _285  and  _288
REMARK  121  A    between atoms: _288  and  _289
REMARK  122  A    between atoms: _292  and  _294
REMARK  123  A    between atoms: _294  and  _295
REMARK  124  A    between atoms: _294  and  _297
REMARK  125  A    between atoms: _300  and  _302
REMARK  126  A    between atoms: _302  and  _303
REMARK  127  A    between atoms: _302  and  _305
REMARK  128  A    between atoms: _305  and  _306
REMARK  129  A    between atoms: _306  and  _307
REMARK  130  A    between atoms: _307  and  _308
REMARK  131  A    between atoms: _308  and  _309
REMARK  132  A    between atoms: _313  and  _315
REMARK  133  A    between atoms: _315  and  _316
REMARK  134  A    between atoms: _315  and  _318
REMARK  135  A    between atoms: _318  and  _319
REMARK  136  A    between atoms: _322  and  _324
REMARK  137  A    between atoms: _324  and  _325
REMARK  138  A    between atoms: _324  and  _327
REMARK  139  A    between atoms: _327  and  _328
REMARK  140  A    between atoms: _331  and  _333
REMARK  141  A    between atoms: _333  and  _334
REMARK  142  A    between atoms: _333  and  _336
REMARK  143  A    between atoms: _336  and  _337
REMARK  144  A    between atoms: _340  and  _342
REMARK  145  A    between atoms: _342  and  _343
REMARK  146  A    between atoms: _342  and  _345
REMARK  147  A    between atoms: _345  and  _346
REMARK  148  A    between atoms: _346  and  _347
REMARK  149  A    between atoms: _349  and  _351
REMARK  150  A    between atoms: _351  and  _352
REMARK  151  A    between atoms: _351  and  _354
REMARK  152  A    between atoms: _354  and  _355
REMARK  153  A    between atoms: _355  and  _356
REMARK  154  A    between atoms: _359  and  _361
REMARK  155  A    between atoms: _361  and  _362
REMARK  156  A    between atoms: _361  and  _364
REMARK  157  A    between atoms: _364  and  _365
REMARK  158  A    between atoms: _368  and  _370
REMARK  159  A    between atoms: _370  and  _371
REMARK  160  A    between atoms: _370  and  _373
REMARK  161  A    between atoms: _375  and  _377
REMARK  162  A    between atoms: _377  and  _378
REMARK  163  A    between atoms: _377  and  _380
REMARK  164  A    between atoms: _380  and  _381
REMARK  165  A    between atoms: _384  and  _386
REMARK  166  A    between atoms: _386  and  _387
REMARK  167  A    between atoms: _386  and  _389
REMARK  168  A    between atoms: _389  and  _390
REMARK  169  A    between atoms: _393  and  _395
REMARK  170  A    between atoms: _395  and  _396
REMARK  171  A    between atoms: _398  and  _400
REMARK  172  A    between atoms: _400  and  _401
REMARK  173  A    between atoms: _400  and  _403
REMARK  174  A    between atoms: _403  and  _404
REMARK  175  A    between atoms: _404  and  _405
REMARK  176  A    between atoms: _408  and  _410
REMARK  177  A    between atoms: _410  and  _411
REMARK  178  A    between atoms: _414  and  _416
REMARK  179  A    between atoms: _416  and  _417
REMARK  180  A    between atoms: _416  and  _419
REMARK  181  A    between atoms: _419  and  _420
REMARK  182  A    between atoms: _423  and  _425
REMARK  183  A    between atoms: _425  and  _426
REMARK  184  A    between atoms: _425  and  _428
REMARK  185  A    between atoms: _428  and  _429
REMARK  186  A    between atoms: _434  and  _435
REMARK  187  A    between atoms: _437  and  _439
REMARK  188  A    between atoms: _439  and  _440
REMARK  189  A    between atoms: _439  and  _442
REMARK  190  A    between atoms: _442  and  _443
REMARK  191  A    between atoms: _446  and  _448
REMARK  192  A    between atoms: _448  and  _449
REMARK  193  A    between atoms: _448  and  _451
REMARK  194  A    between atoms: _451  and  _452
REMARK  195  A    between atoms: _458  and  _460
REMARK  196  A    between atoms: _460  and  _461
REMARK  197  A    between atoms: _460  and  _463
REMARK  198  A    between atoms: _466  and  _468
REMARK  199  A    between atoms: _468  and  _469
REMARK  200  A    between atoms: _468  and  _471
REMARK  201  A    between atoms: _471  and  _472
REMARK  202  A    between atoms: _477  and  _479
REMARK  203  A    between atoms: _479  and  _480
REMARK  204  A    between atoms: _479  and  _482
REMARK  205  A    between atoms: _482  and  _483
REMARK  206  A    between atoms: _483  and  _484
REMARK  207  A    between atoms: _484  and  _485
REMARK  208  A    between atoms: _494  and  _496
REMARK  209  A    between atoms: _496  and  _497
REMARK  210  A    between atoms: _496  and  _499
REMARK  211  A    between atoms: _499  and  _500
REMARK  212  A    between atoms: _503  and  _505
REMARK  213  A    between atoms: _505  and  _506
REMARK  214  A    between atoms: _505  and  _508
REMARK  215  A    between atoms: _508  and  _509
REMARK  216  A    between atoms: _514  and  _516
REMARK  217  A    between atoms: _516  and  _517
REMARK  218  A    between atoms: _516  and  _519
REMARK  219  A    between atoms: _519  and  _520
REMARK  220  A    between atoms: _523  and  _525
REMARK  221  A    between atoms: _525  and  _526
REMARK  222  A    between atoms: _525  and  _528
REMARK  223  A    between atoms: _531  and  _533
REMARK  224  A    between atoms: _533  and  _534
REMARK  225  A    between atoms: _533  and  _536
REMARK  226  A    between atoms: _536  and  _537
REMARK  227  A    between atoms: _539  and  _541
REMARK  228  A    between atoms: _541  and  _542
REMARK  229  A    between atoms: _541  and  _544
REMARK  230  A    between atoms: _544  and  _545
REMARK  231  A    between atoms: _545  and  _546
REMARK  232  A    between atoms: _546  and  _547
REMARK  233  A    between atoms: _547  and  _548
REMARK  234  A    between atoms: _552  and  _554
REMARK  235  A    between atoms: _554  and  _555
REMARK  236  A    between atoms: _554  and  _557
REMARK  237  A    between atoms: _557  and  _558
REMARK  238  A    between atoms: _561  and  _563
REMARK  239  A    between atoms: _563  and  _564
REMARK  240  A    between atoms: _566  and  _568
REMARK  241  A    between atoms: _568  and  _569
REMARK  242  A    between atoms: _568  and  _571
REMARK  243  A    between atoms: _571  and  _572
REMARK  244  A    between atoms: _575  and  _577
REMARK  245  A    between atoms: _577  and  _578
REMARK  246  A    between atoms: _577  and  _580
REMARK  247  A    between atoms: _580  and  _581
REMARK  248  A    between atoms: _587  and  _589
REMARK  249  A    between atoms: _589  and  _590
REMARK                            x       y       z     vdW  Elec       q    Type
REMARK                         _______ _______ _______ _____ _____    ______ ____
ROOT
ATOM      1  CA  VAL A   3       0.303  -7.593  11.355  0.00  0.00    +0.149 C 
ENDROOT
BRANCH   1   3
ATOM      2  C   ILE A   2      -0.220  -8.930   9.343  0.00  0.00    +0.241 C 
ATOM      3  N   VAL A   3      -0.240  -8.779  10.679  0.00  0.00    -0.297 N 
ATOM      4  H   VAL A   3      -0.658  -9.534  11.259  0.00  0.00    +0.150 HD
ATOM      5  O   ILE A   2       0.199  -8.075   8.567  0.00  0.00    -0.273 OA
BRANCH   2   6
ATOM      6  CA  ILE A   2      -0.761 -10.220   8.784  0.00  0.00    +0.148 C 
BRANCH   6   9
ATOM      7  C   HIS A   1      -2.943 -10.185   7.692  0.00  0.00    +0.239 C 
ATOM      8  O   HIS A   1      -3.432 -10.985   8.485  0.00  0.00    -0.274 OA
ATOM      9  N   ILE A   2      -1.680  -9.806   7.736  0.00  0.00    -0.297 N 
ATOM     10  H   ILE A   2      -1.325  -9.181   6.985  0.00  0.00    +0.150 HD
BRANCH   7  11
ATOM     11  CA  HIS A   1      -3.784  -9.533   6.620  0.00  0.00    +0.151 C 
BRANCH  11  12
ATOM     12  N   HIS A   1      -2.997  -9.069   5.488  0.00  0.00    -0.238 NA
ATOM     13  H   HIS A   1      -2.478  -9.761   4.911  0.00  0.00    +0.142 HD
ENDBRANCH  11  12
BRANCH  11  14
ATOM     14  CB  HIS A   1      -4.938 -10.403   6.149  0.00  0.00    +0.074 C 
BRANCH  14  15
ATOM     15  CG  HIS A   1      -5.864  -9.624   5.266  0.00  0.00    +0.082 A 
ATOM     16  ND1 HIS A   1      -6.704  -8.648   5.784  0.00  0.00    -0.227 NA
ATOM     17  CE1 HIS A   1      -7.329  -8.126   4.743  0.00  0.00    +0.199 A 
ATOM     18  NE2 HIS A   1      -6.943  -8.700   3.603  0.00  0.00    -0.221 NA
ATOM     19  CD2 HIS A   1      -5.997  -9.646   3.919  0.00  0.00    +0.115 A 
ENDBRANCH  14  15
ENDBRANCH  11  14
ENDBRANCH   7  11
ENDBRANCH   6   9
BRANCH   6  20
ATOM     20  CB  ILE A   2       0.365 -11.187   8.332  0.00  0.00    +0.027 C 
ATOM     21  CG2 ILE A   2       1.406 -11.366   9.472  0.00  0.00    +0.002 C 
BRANCH  20  22
ATOM     22  CG1 ILE A   2      -0.232 -12.557   7.940  0.00  0.00    +0.002 C 
ATOM     23  CD1 ILE A   2       0.653 -13.483   7.263  0.00  0.00    +0.000 C 
ENDBRANCH  20  22
ENDBRANCH   6  20
ENDBRANCH   2   6
ENDBRANCH   1   3
BRANCH   1  24
ATOM     24  C   VAL A   3       1.740  -7.354  10.865  0.00  0.00    +0.241 C 
ATOM     25  O   VAL A   3       2.533  -8.291  10.746  0.00  0.00    -0.273 OA
ATOM     26  N   LYS A   4       2.039  -6.112  10.540  0.00  0.00    -0.297 N 
ATOM     27  H   LYS A   4       1.316  -5.378  10.683  0.00  0.00    +0.150 HD
BRANCH  26  28
ATOM     28  CA  LYS A   4       3.318  -5.716   9.995  0.00  0.00    +0.149 C 
BRANCH  28  29
ATOM     29  C   LYS A   4       4.286  -5.145  11.044  0.00  0.00    +0.241 C 
ATOM     30  O   LYS A   4       3.897  -4.332  11.892  0.00  0.00    -0.273 OA
ATOM     31  N   LEU A   5       5.558  -5.536  10.938  0.00  0.00    -0.298 N 
ATOM     32  H   LEU A   5       5.799  -6.261  10.233  0.00  0.00    +0.150 HD
BRANCH  31  33
ATOM     33  CA  LEU A   5       6.619  -4.992  11.765  0.00  0.00    +0.137 C 
BRANCH  33  34
ATOM     34  C   LEU A   5       7.115  -3.731  11.027  0.00  0.00    +0.227 C 
ATOM     35  O   LEU A   5       7.510  -3.811   9.856  0.00  0.00    -0.286 OA
ENDBRANCH  33  34
BRANCH  33  36
ATOM     36  CB  LEU A   5       7.764  -6.017  11.932  0.00  0.00    +0.028 C 
BRANCH  36  37
ATOM     37  CG  LEU A   5       9.069  -5.467  12.518  0.00  0.00    +0.002 C 
ATOM     38  CD2 LEU A   5       8.934  -5.242  13.996  0.00  0.00    +0.000 C 
ATOM     39  CD1 LEU A   5      10.223  -6.375  12.236  0.00  0.00    +0.000 C 
ENDBRANCH  36  37
ENDBRANCH  33  36
ENDBRANCH  31  33
ENDBRANCH  28  29
BRANCH  28  40
ATOM     40  CB  LYS A   4       3.056  -4.671   8.896  0.00  0.00    +0.029 C 
BRANCH  40  41
ATOM     41  CG  LYS A   4       4.147  -4.580   7.844  0.00  0.00    +0.000 C 
BRANCH  41  42
ATOM     42  CD  LYS A   4       4.084  -3.250   7.076  0.00  0.00    -0.024 C 
BRANCH  42  43
ATOM     43  CE  LYS A   4       3.030  -3.187   5.988  0.00  0.00    -0.086 C 
BRANCH  43  44
ATOM     44  NZ  LYS A   4       2.063  -2.077   6.221  0.00  0.00    +0.380 N 
ATOM     45  HZ1 LYS A   4       1.585  -2.221   7.133  0.00  0.00    -0.089 HD
ATOM     46  HZ2 LYS A   4       2.574  -1.171   6.236  0.00  0.00    -0.089 HD
ATOM     47  HZ3 LYS A   4       1.358  -2.067   5.456  0.00  0.00    -0.089 HD
ENDBRANCH  43  44
ENDBRANCH  42  43
ENDBRANCH  41  42
ENDBRANCH  40  41
ENDBRANCH  28  40
ENDBRANCH  26  28
ENDBRANCH   1  24
BRANCH   1  48
ATOM     48  CB  VAL A   3       0.226  -7.645  12.900  0.00  0.00    +0.027 C 
ATOM     49  CG2 VAL A   3       0.646  -6.290  13.461  0.00  0.00    +0.002 C 
ATOM     50  CG1 VAL A   3      -1.186  -7.956  13.352  0.00  0.00    +0.002 C 
ENDBRANCH   1  48
TORSDOF 22
REMARK  Name = ../refined-set-2016/4kao/4kao_pocket.pdb
REMARK  249 active torsions:
REMARK  status: ('A' for Active; 'I' for Inactive)
REMARK    1  A    between atoms: _1  and  _3
REMARK    2  A    between atoms: _3  and  _4
REMARK    3  A    between atoms: _3  and  _6
REMARK    4  A    between atoms: _6  and  _7
REMARK    5  A    between atoms: _10  and  _12
REMARK    6  A    between atoms: _12  and  _13
REMARK    7  A    between atoms: _15  and  _17
REMARK    8  A    between atoms: _17  and  _18
REMARK    9  A    between atoms: _17  and  _20
REMARK   10  A    between atoms: _20  and  _21
REMARK   11  A    between atoms: _21  and  _22
REMARK   12  A    between atoms: _27  and  _29
REMARK   13  A    between atoms: _29  and  _30
REMARK   14  A    between atoms: _29  and  _32
REMARK   15  A    between atoms: _32  and  _33
REMARK   16  A    between atoms: _39  and  _41
REMARK   17  A    between atoms: _41  and  _42
REMARK   18  A    between atoms: _41  and  _44
REMARK   19  A    between atoms: _47  and  _49
REMARK   20  A    between atoms: _49  and  _50
REMARK   21  A    between atoms: _49  and  _52
REMARK   22  A    between atoms: _52  and  _53
REMARK   23  A    between atoms: _58  and  _60
REMARK   24  A    between atoms: _60  and  _61
REMARK   25  A    between atoms: _60  and  _63
REMARK   26  A    between atoms: _63  and  _64
REMARK   27  A    between atoms: _64  and  _65
REMARK   28  A    between atoms: _70  and  _72
REMARK   29  A    between atoms: _72  and  _73
REMARK   30  A    between atoms: _76  and  _78
REMARK   31  A    between atoms: _78  and  _79
REMARK   32  A    between atoms: _78  and  _81
REMARK   33  A    between atoms: _84  and  _86
REMARK   34  A    between atoms: _86  and  _87
REMARK   35  A    between atoms: _90  and  _92
REMARK   36  A    between atoms: _92  and  _93
REMARK   37  A    between atoms: _92  and  _95
REMARK   38  A    between atoms: _95  and  _96
REMARK   39  A    between atoms: _99  and  _101
REMARK   40  A    between atoms: _101  and  _102
REMARK   41  A    between atoms: _101  and  _104
REMARK   42  A    between atoms: _104  and  _105
REMARK   43  A    between atoms: _105  and  _106
REMARK   44  A    between atoms: _106  and  _107
REMARK   45  A    between atoms: _107  and  _108
REMARK   46  A    between atoms: _112  and  _114
REMARK   47  A    between atoms: _114  and  _115
REMARK   48  A    between atoms: _114  and  _117
REMARK   49  A    between atoms: _117  and  _118
REMARK   50  A    between atoms: _118  and  _119
REMARK   51  A    between atoms: _122  and  _124
REMARK   52  A    between atoms: _124  and  _125
REMARK   53  A    between atoms: _124  and  _127
REMARK   54  A    between atoms: _127  and  _128
REMARK   55  A    between atoms: _128  and  _129
REMARK   56  A    between atoms: _129  and  _130
REMARK   57  A    between atoms: _130  and  _131
REMARK   58  A    between atoms: _135  and  _137
REMARK   59  A    between atoms: _137  and  _138
REMARK   60  A    between atoms: _137  and  _140
REMARK   61  A    between atoms: _140  and  _141
REMARK   62  A    between atoms: _147  and  _149
REMARK   63  A    between atoms: _149  and  _150
REMARK   64  A    between atoms: _149  and  _152
REMARK   65  A    between atoms: _152  and  _153
REMARK   66  A    between atoms: _156  and  _158
REMARK   67  A    between atoms: _158  and  _159
REMARK   68  A    between atoms: _158  and  _161
REMARK   69  A    between atoms: _161  and  _162
REMARK   70  A    between atoms: _162  and  _163
REMARK   71  A    between atoms: _168  and  _170
REMARK   72  A    between atoms: _170  and  _171
REMARK   73  A    between atoms: _170  and  _173
REMARK   74  A    between atoms: _173  and  _174
REMARK   75  A    between atoms: _174  and  _175
REMARK   76  A    between atoms: _178  and  _180
REMARK   77  A    between atoms: _180  and  _181
REMARK   78  A    between atoms: _184  and  _186
REMARK   79  A    between atoms: _186  and  _187
REMARK   80  A    between atoms: _186  and  _189
REMARK   81  A    between atoms: _189  and  _190
REMARK   82  A    between atoms: _193  and  _195
REMARK   83  A    between atoms: _195  and  _196
REMARK   84  A    between atoms: _195  and  _198
REMARK   85  A    between atoms: _198  and  _199
REMARK   86  A    between atoms: _202  and  _204
REMARK   87  A    between atoms: _204  and  _205
REMARK   88  A    between atoms: _204  and  _207
REMARK   89  A    between atoms: _207  and  _208
REMARK   90  A    between atoms: _208  and  _209
REMARK   91  A    between atoms: _211  and  _213
REMARK   92  A    between atoms: _213  and  _214
REMARK   93  A    between atoms: _213  and  _216
REMARK   94  A    between atoms: _216  and  _217
REMARK   95  A    between atoms: _217  and  _218
REMARK   96  A    between atoms: _218  and  _219
REMARK   97  A    between atoms: _228  and  _230
REMARK   98  A    between atoms: _230  and  _231
REMARK   99  A    between atoms: _230  and  _233
REMARK  100  A    between atoms: _233  and  _234
REMARK  101  A    between atoms: _234  and  _235
REMARK  102  A    between atoms: _240  and  _242
REMARK  103  A    between atoms: _242  and  _243
REMARK  104  A    between atoms: _242  and  _245
REMARK  105  A    between atoms: _245  and  _246
REMARK  106  A    between atoms: _252  and  _254
REMARK  107  A    between atoms: _254  and  _255
REMARK  108  A    between atoms: _254  and  _257
REMARK  109  A    between atoms: _257  and  _258
REMARK  110  A    between atoms: _261  and  _263
REMARK  111  A    between atoms: _263  and  _264
REMARK  112  A    between atoms: _263  and  _266
REMARK  113  A    between atoms: _266  and  _267
REMARK  114  A    between atoms: _272  and  _274
REMARK  115  A    between atoms: _274  and  _275
REMARK  116  A    between atoms: _274  and  _277
REMARK  117  A    between atoms: _277  and  _278
REMARK  118  A    between atoms: _283  and  _285
REMARK  119  A    between atoms: _285  and  _286
REMARK  120  A    between atoms: _285  and  _288
REMARK  121  A    between atoms: _288  and  _289
REMARK  122  A    between atoms: _292  and  _294
REMARK  123  A    between atoms: _294  and  _295
REMARK  124  A    between atoms: _294  and  _297
REMARK  125  A    between atoms: _300  and  _302
REMARK  126  A    between atoms: _302  and  _303
REMARK  127  A    between atoms: _302  and  _305
REMARK  128  A    between atoms: _305  and  _306
REMARK  129  A    between atoms: _306  and  _307
REMARK  130  A    between atoms: _307  and  _308
REMARK  131  A    between atoms: _308  and  _309
REMARK  132  A    between atoms: _313  and  _315
REMARK  133  A    between atoms: _315  and  _316
REMARK  134  A    between atoms: _315  and  _318
REMARK  135  A    between atoms: _318  and  _319
REMARK  136  A    between atoms: _322  and  _324
REMARK  137  A    between atoms: _324  and  _325
REMARK  138  A    between atoms: _324  and  _327
REMARK  139  A    between atoms: _327  and  _328
REMARK  140  A    between atoms: _331  and  _333
REMARK  141  A    between atoms: _333  and  _334
REMARK  142  A    between atoms: _333  and  _336
REMARK  143  A    between atoms: _336  and  _337
REMARK  144  A    between atoms: _340  and  _342
REMARK  145  A    between atoms: _342  and  _343
REMARK  146  A    between atoms: _342  and  _345
REMARK  147  A    between atoms: _345  and  _346
REMARK  148  A    between atoms: _346  and  _347
REMARK  149  A    between atoms: _349  and  _351
REMARK  150  A    between atoms: _351  and  _352
REMARK  151  A    between atoms: _351  and  _354
REMARK  152  A    between atoms: _354  and  _355
REMARK  153  A    between atoms: _355  and  _356
REMARK  154  A    between atoms: _359  and  _361
REMARK  155  A    between atoms: _361  and  _362
REMARK  156  A    between atoms: _361  and  _364
REMARK  157  A    between atoms: _364  and  _365
REMARK  158  A    between atoms: _368  and  _370
REMARK  159  A    between atoms: _370  and  _371
REMARK  160  A    between atoms: _370  and  _373
REMARK  161  A    between atoms: _375  and  _377
REMARK  162  A    between atoms: _377  and  _378
REMARK  163  A    between atoms: _377  and  _380
REMARK  164  A    between atoms: _380  and  _381
REMARK  165  A    between atoms: _384  and  _386
REMARK  166  A    between atoms: _386  and  _387
REMARK  167  A    between atoms: _386  and  _389
REMARK  168  A    between atoms: _389  and  _390
REMARK  169  A    between atoms: _393  and  _395
REMARK  170  A    between atoms: _395  and  _396
REMARK  171  A    between atoms: _398  and  _400
REMARK  172  A    between atoms: _400  and  _401
REMARK  173  A    between atoms: _400  and  _403
REMARK  174  A    between atoms: _403  and  _404
REMARK  175  A    between atoms: _404  and  _405
REMARK  176  A    between atoms: _408  and  _410
REMARK  177  A    between atoms: _410  and  _411
REMARK  178  A    between atoms: _414  and  _416
REMARK  179  A    between atoms: _416  and  _417
REMARK  180  A    between atoms: _416  and  _419
REMARK  181  A    between atoms: _419  and  _420
REMARK  182  A    between atoms: _423  and  _425
REMARK  183  A    between atoms: _425  and  _426
REMARK  184  A    between atoms: _425  and  _428
REMARK  185  A    between atoms: _428  and  _429
REMARK  186  A    between atoms: _434  and  _435
REMARK  187  A    between atoms: _437  and  _439
REMARK  188  A    between atoms: _439  and  _440
REMARK  189  A    between atoms: _439  and  _442
REMARK  190  A    between atoms: _442  and  _443
REMARK  191  A    between atoms: _446  and  _448
REMARK  192  A    between atoms: _448  and  _449
REMARK  193  A    between atoms: _448  and  _451
REMARK  194  A    between atoms: _451  and  _452
REMARK  195  A    between atoms: _458  and  _460
REMARK  196  A    between atoms: _460  and  _461
REMARK  197  A    between atoms: _460  and  _463
REMARK  198  A    between atoms: _466  and  _468
REMARK  199  A    between atoms: _468  and  _469
REMARK  200  A    between atoms: _468  and  _471
REMARK  201  A    between atoms: _471  and  _472
REMARK  202  A    between atoms: _477  and  _479
REMARK  203  A    between atoms: _479  and  _480
REMARK  204  A    between atoms: _479  and  _482
REMARK  205  A    between atoms: _482  and  _483
REMARK  206  A    between atoms: _483  and  _484
REMARK  207  A    between atoms: _484  and  _485
REMARK  208  A    between atoms: _494  and  _496
REMARK  209  A    between atoms: _496  and  _497
REMARK  210  A    between atoms: _496  and  _499
REMARK  211  A    between atoms: _499  and  _500
REMARK  212  A    between atoms: _503  and  _505
REMARK  213  A    between atoms: _505  and  _506
REMARK  214  A    between atoms: _505  and  _508
REMARK  215  A    between atoms: _508  and  _509
REMARK  216  A    between atoms: _514  and  _516
REMARK  217  A    between atoms: _516  and  _517
REMARK  218  A    between atoms: _516  and  _519
REMARK  219  A    between atoms: _519  and  _520
REMARK  220  A    between atoms: _523  and  _525
REMARK  221  A    between atoms: _525  and  _526
REMARK  222  A    between atoms: _525  and  _528
REMARK  223  A    between atoms: _531  and  _533
REMARK  224  A    between atoms: _533  and  _534
REMARK  225  A    between atoms: _533  and  _536
REMARK  226  A    between atoms: _536  and  _537
REMARK  227  A    between atoms: _539  and  _541
REMARK  228  A    between atoms: _541  and  _542
REMARK  229  A    between atoms: _541  and  _544
REMARK  230  A    between atoms: _544  and  _545
REMARK  231  A    between atoms: _545  and  _546
REMARK  232  A    between atoms: _546  and  _547
REMARK  233  A    between atoms: _547  and  _548
REMARK  234  A    between atoms: _552  and  _554
REMARK  235  A    between atoms: _554  and  _555
REMARK  236  A    between atoms: _554  and  _557
REMARK  237  A    between atoms: _557  and  _558
REMARK  238  A    between atoms: _561  and  _563
REMARK  239  A    between atoms: _563  and  _564
REMARK  240  A    between atoms: _566  and  _568
REMARK  241  A    between atoms: _568  and  _569
REMARK  242  A    between atoms: _568  and  _571
REMARK  243  A    between atoms: _571  and  _572
REMARK  244  A    between atoms: _575  and  _577
REMARK  245  A    between atoms: _577  and  _578
REMARK  246  A    between atoms: _577  and  _580
REMARK  247  A    between atoms: _580  and  _581
REMARK  248  A    between atoms: _587  and  _589
REMARK  249  A    between atoms: _589  and  _590
REMARK                            x       y       z     vdW  Elec       q    Type
REMARK                         _______ _______ _______ _____ _____    ______ ____
ROOT
ATOM      1  CA  LEU A   5      -1.499  -0.163  14.567  0.00  0.00    +0.149 C 
ENDROOT
BRANCH   1   2
ATOM      2  C   LEU A   5      -2.811  -0.684  14.004  0.00  0.00    +0.241 C 
ATOM      3  N   CYS A   6      -3.492  -1.536  14.789  0.00  0.00    -0.296 N 
ATOM      4  H   CYS A   6      -3.033  -1.838  15.672  0.00  0.00    +0.150 HD
ATOM      5  O   LEU A   5      -3.183  -0.335  12.887  0.00  0.00    -0.273 OA
BRANCH   3   6
ATOM      6  CA  CYS A   6      -4.820  -2.074  14.510  0.00  0.00    +0.160 C 
BRANCH   6   7
ATOM      7  C   CYS A   6      -5.695  -1.398  15.573  0.00  0.00    +0.242 C 
ATOM      8  O   CYS A   6      -5.738  -1.856  16.722  0.00  0.00    -0.273 OA
ATOM      9  N   THR A   7      -6.296  -0.240  15.200  0.00  0.00    -0.295 N 
ATOM     10  H   THR A   7      -6.197   0.038  14.203  0.00  0.00    +0.150 HD
BRANCH   9  11
ATOM     11  CA  THR A   7      -7.077   0.665  16.068  0.00  0.00    +0.176 C 
BRANCH  11  12
ATOM     12  C   THR A   7      -8.305   0.057  16.746  0.00  0.00    +0.243 C 
ATOM     13  O   THR A   7      -8.650   0.478  17.856  0.00  0.00    -0.273 OA
ATOM     14  N   LEU A   8      -8.991  -0.892  16.076  0.00  0.00    -0.297 N 
ATOM     15  H   LEU A   8      -8.640  -1.230  15.157  0.00  0.00    +0.150 HD
BRANCH  14  16
ATOM     16  CA  LEU A   8     -10.222  -1.448  16.629  0.00  0.00    +0.149 C 
BRANCH  16  17
ATOM     17  C   LEU A   8      -9.986  -2.613  17.592  0.00  0.00    +0.241 C 
ATOM     18  O   LEU A   8     -10.943  -3.149  18.159  0.00  0.00    -0.273 OA
ATOM     19  N   GLY A   9      -8.717  -2.912  17.845  0.00  0.00    -0.295 N 
ATOM     20  H   GLY A   9      -7.986  -2.394  17.317  0.00  0.00    +0.150 HD
BRANCH  19  21
ATOM     21  CA  GLY A   9      -8.271  -3.913  18.808  0.00  0.00    +0.176 C 
BRANCH  21  22
ATOM     22  C   GLY A   9      -8.595  -5.361  18.500  0.00  0.00    +0.243 C 
ATOM     23  N   GLU A  10      -8.682  -6.165  19.558  0.00  0.00    -0.298 N 
ATOM     24  H   GLU A  10      -8.553  -5.706  20.482  0.00  0.00    +0.150 HD
ATOM     25  O   GLY A   9      -8.774  -5.741  17.348  0.00  0.00    -0.273 OA
BRANCH  23  26
ATOM     26  CA  GLU A  10      -8.934  -7.607  19.597  0.00  0.00    +0.137 C 
BRANCH  26  27
ATOM     27  C   GLU A  10     -10.252  -7.996  18.972  0.00  0.00    +0.227 C 
ATOM     28  O   GLU A  10     -11.280  -7.413  19.292  0.00  0.00    -0.286 OA
ENDBRANCH  26  27
BRANCH  26  29
ATOM     29  CB  GLU A  10      -8.838  -8.102  21.066  0.00  0.00    +0.039 C 
BRANCH  29  30
ATOM     30  CG  GLU A  10      -7.491  -7.784  21.722  0.00  0.00    +0.116 C 
BRANCH  30  31
ATOM     31  CD  GLU A  10      -7.450  -7.278  23.164  0.00  0.00    +0.365 C 
ATOM     32  OE2 GLU A  10      -6.509  -7.664  23.895  0.00  0.00    -0.246 OA
ATOM     33  OE1 GLU A  10      -8.300  -6.431  23.531  0.00  0.00    -0.246 OA
ENDBRANCH  30  31
ENDBRANCH  29  30
ENDBRANCH  26  29
ENDBRANCH  23  26
ENDBRANCH  21  22
ENDBRANCH  19  21
ENDBRANCH  16  17
BRANCH  16  34
ATOM     34  CB  LEU A   8     -11.227  -1.788  15.530  0.00  0.00    +0.029 C 
BRANCH  34  35
ATOM     35  CG  LEU A   8     -11.616  -0.630  14.597  0.00  0.00    +0.002 C 
ATOM     36  CD2 LEU A   8     -12.035   0.623  15.376  0.00  0.00    +0.000 C 
ATOM     37  CD1 LEU A   8     -12.736  -1.031  13.704  0.00  0.00    +0.000 C 
ENDBRANCH  34  35
ENDBRANCH  16  34
ENDBRANCH  14  16
ENDBRANCH  11  12
BRANCH  11  38
ATOM     38  CB  THR A   7      -7.516   1.952  15.310  0.00  0.00    +0.137 C 
ATOM     39  CG2 THR A   7      -6.367   2.789  14.816  0.00  0.00    +0.034 C 
BRANCH  38  40
ATOM     40  OG1 THR A   7      -8.310   1.593  14.194  0.00  0.00    -0.382 OA
ATOM     41  HG1 THR A   7      -8.589   2.411  13.712  0.00  0.00    +0.210 HD
ENDBRANCH  38  40
ENDBRANCH  11  38
ENDBRANCH   9  11
ENDBRANCH   6   7
BRANCH   6  42
ATOM     42  CB  CYS A   6      -4.838  -3.598  14.629  0.00  0.00    +0.098 C 
ATOM     43  SG  CYS A   6      -3.596  -4.452  13.607  0.00  0.00    -0.080 S 
ENDBRANCH   6  42
ENDBRANCH   3   6
ENDBRANCH   1   2
BRANCH   1  46
ATOM     44  C   GLU A   4       0.297  -1.395  13.517  0.00  0.00    +0.241 C 
ATOM     45  O   GLU A   4       0.108  -2.371  14.252  0.00  0.00    -0.273 OA
ATOM     46  N   LEU A   5      -0.414  -0.284  13.610  0.00  0.00    -0.297 N 
ATOM     47  H   LEU A   5      -0.192   0.518  12.986  0.00  0.00    +0.150 HD
BRANCH  44  48
ATOM     48  CA  GLU A   4       1.447  -1.388  12.491  0.00  0.00    +0.149 C 
BRANCH  48  51
ATOM     49  C   MET A   3       3.217  -1.486  14.176  0.00  0.00    +0.241 C 
ATOM     50  O   MET A   3       2.990  -0.348  14.599  0.00  0.00    -0.273 OA
ATOM     51  N   GLU A   4       2.548  -2.028  13.175  0.00  0.00    -0.297 N 
ATOM     52  H   GLU A   4       2.832  -2.977  12.858  0.00  0.00    +0.150 HD
BRANCH  49  53
ATOM     53  CA  MET A   3       4.219  -2.396  14.851  0.00  0.00    +0.149 C 
BRANCH  53  55
ATOM     54  C   ILE A   2       6.482  -1.518  15.329  0.00  0.00    +0.241 C 
ATOM     55  N   MET A   3       5.185  -1.600  15.604  0.00  0.00    -0.297 N 
ATOM     56  H   MET A   3       4.831  -1.056  16.417  0.00  0.00    +0.150 HD
ATOM     57  O   ILE A   2       7.019  -2.129  14.413  0.00  0.00    -0.273 OA
BRANCH  54  58
ATOM     58  CA  ILE A   2       7.306  -0.627  16.252  0.00  0.00    +0.148 C 
BRANCH  58  61
ATOM     59  C   ILE A   1       8.194  -1.867  18.185  0.00  0.00    +0.238 C 
ATOM     60  O   ILE A   1       7.230  -1.590  18.902  0.00  0.00    -0.274 OA
ATOM     61  N   ILE A   2       8.309  -1.447  16.920  0.00  0.00    -0.297 N 
ATOM     62  H   ILE A   2       9.158  -1.720  16.385  0.00  0.00    +0.150 HD
BRANCH  59  63
ATOM     63  CA  ILE A   1       9.363  -2.663  18.754  0.00  0.00    +0.145 C 
BRANCH  63  64
ATOM     64  N   ILE A   1       9.767  -1.950  19.962  0.00  0.00    -0.238 NA
ATOM     65  H   ILE A   1       9.085  -1.890  20.745  0.00  0.00    +0.142 HD
ENDBRANCH  63  64
BRANCH  63  66
ATOM     66  CB  ILE A   1       9.062  -4.188  18.923  0.00  0.00    +0.025 C 
ATOM     67  CG2 ILE A   1       8.627  -4.807  17.571  0.00  0.00    +0.002 C 
BRANCH  66  68
ATOM     68  CG1 ILE A   1      10.287  -4.950  19.482  0.00  0.00    +0.002 C 
ATOM     69  CD1 ILE A   1       9.971  -6.397  19.871  0.00  0.00    +0.000 C 
ENDBRANCH  66  68
ENDBRANCH  63  66
ENDBRANCH  59  63
ENDBRANCH  58  61
BRANCH  58  70
ATOM     70  CB  ILE A   2       7.938   0.605  15.509  0.00  0.00    +0.027 C 
ATOM     71  CG2 ILE A   2       6.868   1.627  15.089  0.00  0.00    +0.002 C 
BRANCH  70  72
ATOM     72  CG1 ILE A   2       9.110   1.276  16.305  0.00  0.00    +0.002 C 
ATOM     73  CD1 ILE A   2       8.804   1.864  17.668  0.00  0.00    +0.000 C 
ENDBRANCH  70  72
ENDBRANCH  58  70
ENDBRANCH  54  58
ENDBRANCH  53  55
BRANCH  53  74
ATOM     74  CB  MET A   3       3.386  -3.278  15.806  0.00  0.00    +0.041 C 
BRANCH  74  75
ATOM     75  CG  MET A   3       4.149  -4.036  16.826  0.00  0.00    +0.060 C 
BRANCH  75  76
ATOM     76  SD  MET A   3       5.262  -5.258  16.104  0.00  0.00    -0.139 S 
ATOM     77  CE  MET A   3       5.318  -6.320  17.443  0.00  0.00    +0.069 C 
ENDBRANCH  75  76
ENDBRANCH  74  75
ENDBRANCH  53  74
ENDBRANCH  49  53
ENDBRANCH  48  51
BRANCH  48  78
ATOM     78  CB  GLU A   4       1.107  -2.204  11.239  0.00  0.00    +0.041 C 
BRANCH  78  79
ATOM     79  CG  GLU A   4      -0.259  -1.958  10.623  0.00  0.00    +0.116 C 
BRANCH  79  80
ATOM     80  CD  GLU A   4      -0.672  -3.007   9.609  0.00  0.00    +0.365 C 
ATOM     81  OE2 GLU A   4      -0.276  -4.190   9.748  0.00  0.00    -0.246 OA
ATOM     82  OE1 GLU A   4      -1.392  -2.630   8.658  0.00  0.00    -0.246 OA
ENDBRANCH  79  80
ENDBRANCH  78  79
ENDBRANCH  48  78
ENDBRANCH  44  48
ENDBRANCH   1  46
BRANCH   1  83
ATOM     83  CB  LEU A   5      -1.628   1.291  15.040  0.00  0.00    +0.029 C 
BRANCH  83  84
ATOM     84  CG  LEU A   5      -2.685   1.601  16.112  0.00  0.00    +0.002 C 
ATOM     85  CD2 LEU A   5      -2.293   1.036  17.508  0.00  0.00    +0.000 C 
ATOM     86  CD1 LEU A   5      -2.943   3.108  16.184  0.00  0.00    +0.000 C 
ENDBRANCH  83  84
ENDBRANCH   1  83
TORSDOF 40
REMARK  Name = ../refined-set-2016/4kao/4kao_pocket.pdb
REMARK  249 active torsions:
REMARK  status: ('A' for Active; 'I' for Inactive)
REMARK    1  A    between atoms: _1  and  _3
REMARK    2  A    between atoms: _3  and  _4
REMARK    3  A    between atoms: _3  and  _6
REMARK    4  A    between atoms: _6  and  _7
REMARK    5  A    between atoms: _10  and  _12
REMARK    6  A    between atoms: _12  and  _13
REMARK    7  A    between atoms: _15  and  _17
REMARK    8  A    between atoms: _17  and  _18
REMARK    9  A    between atoms: _17  and  _20
REMARK   10  A    between atoms: _20  and  _21
REMARK   11  A    between atoms: _21  and  _22
REMARK   12  A    between atoms: _27  and  _29
REMARK   13  A    between atoms: _29  and  _30
REMARK   14  A    between atoms: _29  and  _32
REMARK   15  A    between atoms: _32  and  _33
REMARK   16  A    between atoms: _39  and  _41
REMARK   17  A    between atoms: _41  and  _42
REMARK   18  A    between atoms: _41  and  _44
REMARK   19  A    between atoms: _47  and  _49
REMARK   20  A    between atoms: _49  and  _50
REMARK   21  A    between atoms: _49  and  _52
REMARK   22  A    between atoms: _52  and  _53
REMARK   23  A    between atoms: _58  and  _60
REMARK   24  A    between atoms: _60  and  _61
REMARK   25  A    between atoms: _60  and  _63
REMARK   26  A    between atoms: _63  and  _64
REMARK   27  A    between atoms: _64  and  _65
REMARK   28  A    between atoms: _70  and  _72
REMARK   29  A    between atoms: _72  and  _73
REMARK   30  A    between atoms: _76  and  _78
REMARK   31  A    between atoms: _78  and  _79
REMARK   32  A    between atoms: _78  and  _81
REMARK   33  A    between atoms: _84  and  _86
REMARK   34  A    between atoms: _86  and  _87
REMARK   35  A    between atoms: _90  and  _92
REMARK   36  A    between atoms: _92  and  _93
REMARK   37  A    between atoms: _92  and  _95
REMARK   38  A    between atoms: _95  and  _96
REMARK   39  A    between atoms: _99  and  _101
REMARK   40  A    between atoms: _101  and  _102
REMARK   41  A    between atoms: _101  and  _104
REMARK   42  A    between atoms: _104  and  _105
REMARK   43  A    between atoms: _105  and  _106
REMARK   44  A    between atoms: _106  and  _107
REMARK   45  A    between atoms: _107  and  _108
REMARK   46  A    between atoms: _112  and  _114
REMARK   47  A    between atoms: _114  and  _115
REMARK   48  A    between atoms: _114  and  _117
REMARK   49  A    between atoms: _117  and  _118
REMARK   50  A    between atoms: _118  and  _119
REMARK   51  A    between atoms: _122  and  _124
REMARK   52  A    between atoms: _124  and  _125
REMARK   53  A    between atoms: _124  and  _127
REMARK   54  A    between atoms: _127  and  _128
REMARK   55  A    between atoms: _128  and  _129
REMARK   56  A    between atoms: _129  and  _130
REMARK   57  A    between atoms: _130  and  _131
REMARK   58  A    between atoms: _135  and  _137
REMARK   59  A    between atoms: _137  and  _138
REMARK   60  A    between atoms: _137  and  _140
REMARK   61  A    between atoms: _140  and  _141
REMARK   62  A    between atoms: _147  and  _149
REMARK   63  A    between atoms: _149  and  _150
REMARK   64  A    between atoms: _149  and  _152
REMARK   65  A    between atoms: _152  and  _153
REMARK   66  A    between atoms: _156  and  _158
REMARK   67  A    between atoms: _158  and  _159
REMARK   68  A    between atoms: _158  and  _161
REMARK   69  A    between atoms: _161  and  _162
REMARK   70  A    between atoms: _162  and  _163
REMARK   71  A    between atoms: _168  and  _170
REMARK   72  A    between atoms: _170  and  _171
REMARK   73  A    between atoms: _170  and  _173
REMARK   74  A    between atoms: _173  and  _174
REMARK   75  A    between atoms: _174  and  _175
REMARK   76  A    between atoms: _178  and  _180
REMARK   77  A    between atoms: _180  and  _181
REMARK   78  A    between atoms: _184  and  _186
REMARK   79  A    between atoms: _186  and  _187
REMARK   80  A    between atoms: _186  and  _189
REMARK   81  A    between atoms: _189  and  _190
REMARK   82  A    between atoms: _193  and  _195
REMARK   83  A    between atoms: _195  and  _196
REMARK   84  A    between atoms: _195  and  _198
REMARK   85  A    between atoms: _198  and  _199
REMARK   86  A    between atoms: _202  and  _204
REMARK   87  A    between atoms: _204  and  _205
REMARK   88  A    between atoms: _204  and  _207
REMARK   89  A    between atoms: _207  and  _208
REMARK   90  A    between atoms: _208  and  _209
REMARK   91  A    between atoms: _211  and  _213
REMARK   92  A    between atoms: _213  and  _214
REMARK   93  A    between atoms: _213  and  _216
REMARK   94  A    between atoms: _216  and  _217
REMARK   95  A    between atoms: _217  and  _218
REMARK   96  A    between atoms: _218  and  _219
REMARK   97  A    between atoms: _228  and  _230
REMARK   98  A    between atoms: _230  and  _231
REMARK   99  A    between atoms: _230  and  _233
REMARK  100  A    between atoms: _233  and  _234
REMARK  101  A    between atoms: _234  and  _235
REMARK  102  A    between atoms: _240  and  _242
REMARK  103  A    between atoms: _242  and  _243
REMARK  104  A    between atoms: _242  and  _245
REMARK  105  A    between atoms: _245  and  _246
REMARK  106  A    between atoms: _252  and  _254
REMARK  107  A    between atoms: _254  and  _255
REMARK  108  A    between atoms: _254  and  _257
REMARK  109  A    between atoms: _257  and  _258
REMARK  110  A    between atoms: _261  and  _263
REMARK  111  A    between atoms: _263  and  _264
REMARK  112  A    between atoms: _263  and  _266
REMARK  113  A    between atoms: _266  and  _267
REMARK  114  A    between atoms: _272  and  _274
REMARK  115  A    between atoms: _274  and  _275
REMARK  116  A    between atoms: _274  and  _277
REMARK  117  A    between atoms: _277  and  _278
REMARK  118  A    between atoms: _283  and  _285
REMARK  119  A    between atoms: _285  and  _286
REMARK  120  A    between atoms: _285  and  _288
REMARK  121  A    between atoms: _288  and  _289
REMARK  122  A    between atoms: _292  and  _294
REMARK  123  A    between atoms: _294  and  _295
REMARK  124  A    between atoms: _294  and  _297
REMARK  125  A    between atoms: _300  and  _302
REMARK  126  A    between atoms: _302  and  _303
REMARK  127  A    between atoms: _302  and  _305
REMARK  128  A    between atoms: _305  and  _306
REMARK  129  A    between atoms: _306  and  _307
REMARK  130  A    between atoms: _307  and  _308
REMARK  131  A    between atoms: _308  and  _309
REMARK  132  A    between atoms: _313  and  _315
REMARK  133  A    between atoms: _315  and  _316
REMARK  134  A    between atoms: _315  and  _318
REMARK  135  A    between atoms: _318  and  _319
REMARK  136  A    between atoms: _322  and  _324
REMARK  137  A    between atoms: _324  and  _325
REMARK  138  A    between atoms: _324  and  _327
REMARK  139  A    between atoms: _327  and  _328
REMARK  140  A    between atoms: _331  and  _333
REMARK  141  A    between atoms: _333  and  _334
REMARK  142  A    between atoms: _333  and  _336
REMARK  143  A    between atoms: _336  and  _337
REMARK  144  A    between atoms: _340  and  _342
REMARK  145  A    between atoms: _342  and  _343
REMARK  146  A    between atoms: _342  and  _345
REMARK  147  A    between atoms: _345  and  _346
REMARK  148  A    between atoms: _346  and  _347
REMARK  149  A    between atoms: _349  and  _351
REMARK  150  A    between atoms: _351  and  _352
REMARK  151  A    between atoms: _351  and  _354
REMARK  152  A    between atoms: _354  and  _355
REMARK  153  A    between atoms: _355  and  _356
REMARK  154  A    between atoms: _359  and  _361
REMARK  155  A    between atoms: _361  and  _362
REMARK  156  A    between atoms: _361  and  _364
REMARK  157  A    between atoms: _364  and  _365
REMARK  158  A    between atoms: _368  and  _370
REMARK  159  A    between atoms: _370  and  _371
REMARK  160  A    between atoms: _370  and  _373
REMARK  161  A    between atoms: _375  and  _377
REMARK  162  A    between atoms: _377  and  _378
REMARK  163  A    between atoms: _377  and  _380
REMARK  164  A    between atoms: _380  and  _381
REMARK  165  A    between atoms: _384  and  _386
REMARK  166  A    between atoms: _386  and  _387
REMARK  167  A    between atoms: _386  and  _389
REMARK  168  A    between atoms: _389  and  _390
REMARK  169  A    between atoms: _393  and  _395
REMARK  170  A    between atoms: _395  and  _396
REMARK  171  A    between atoms: _398  and  _400
REMARK  172  A    between atoms: _400  and  _401
REMARK  173  A    between atoms: _400  and  _403
REMARK  174  A    between atoms: _403  and  _404
REMARK  175  A    between atoms: _404  and  _405
REMARK  176  A    between atoms: _408  and  _410
REMARK  177  A    between atoms: _410  and  _411
REMARK  178  A    between atoms: _414  and  _416
REMARK  179  A    between atoms: _416  and  _417
REMARK  180  A    between atoms: _416  and  _419
REMARK  181  A    between atoms: _419  and  _420
REMARK  182  A    between atoms: _423  and  _425
REMARK  183  A    between atoms: _425  and  _426
REMARK  184  A    between atoms: _425  and  _428
REMARK  185  A    between atoms: _428  and  _429
REMARK  186  A    between atoms: _434  and  _435
REMARK  187  A    between atoms: _437  and  _439
REMARK  188  A    between atoms: _439  and  _440
REMARK  189  A    between atoms: _439  and  _442
REMARK  190  A    between atoms: _442  and  _443
REMARK  191  A    between atoms: _446  and  _448
REMARK  192  A    between atoms: _448  and  _449
REMARK  193  A    between atoms: _448  and  _451
REMARK  194  A    between atoms: _451  and  _452
REMARK  195  A    between atoms: _458  and  _460
REMARK  196  A    between atoms: _460  and  _461
REMARK  197  A    between atoms: _460  and  _463
REMARK  198  A    between atoms: _466  and  _468
REMARK  199  A    between atoms: _468  and  _469
REMARK  200  A    between atoms: _468  and  _471
REMARK  201  A    between atoms: _471  and  _472
REMARK  202  A    between atoms: _477  and  _479
REMARK  203  A    between atoms: _479  and  _480
REMARK  204  A    between atoms: _479  and  _482
REMARK  205  A    between atoms: _482  and  _483
REMARK  206  A    between atoms: _483  and  _484
REMARK  207  A    between atoms: _484  and  _485
REMARK  208  A    between atoms: _494  and  _496
REMARK  209  A    between atoms: _496  and  _497
REMARK  210  A    between atoms: _496  and  _499
REMARK  211  A    between atoms: _499  and  _500
REMARK  212  A    between atoms: _503  and  _505
REMARK  213  A    between atoms: _505  and  _506
REMARK  214  A    between atoms: _505  and  _508
REMARK  215  A    between atoms: _508  and  _509
REMARK  216  A    between atoms: _514  and  _516
REMARK  217  A    between atoms: _516  and  _517
REMARK  218  A    between atoms: _516  and  _519
REMARK  219  A    between atoms: _519  and  _520
REMARK  220  A    between atoms: _523  and  _525
REMARK  221  A    between atoms: _525  and  _526
REMARK  222  A    between atoms: _525  and  _528
REMARK  223  A    between atoms: _531  and  _533
REMARK  224  A    between atoms: _533  and  _534
REMARK  225  A    between atoms: _533  and  _536
REMARK  226  A    between atoms: _536  and  _537
REMARK  227  A    between atoms: _539  and  _541
REMARK  228  A    between atoms: _541  and  _542
REMARK  229  A    between atoms: _541  and  _544
REMARK  230  A    between atoms: _544  and  _545
REMARK  231  A    between atoms: _545  and  _546
REMARK  232  A    between atoms: _546  and  _547
REMARK  233  A    between atoms: _547  and  _548
REMARK  234  A    between atoms: _552  and  _554
REMARK  235  A    between atoms: _554  and  _555
REMARK  236  A    between atoms: _554  and  _557
REMARK  237  A    between atoms: _557  and  _558
REMARK  238  A    between atoms: _561  and  _563
REMARK  239  A    between atoms: _563  and  _564
REMARK  240  A    between atoms: _566  and  _568
REMARK  241  A    between atoms: _568  and  _569
REMARK  242  A    between atoms: _568  and  _571
REMARK  243  A    between atoms: _571  and  _572
REMARK  244  A    between atoms: _575  and  _577
REMARK  245  A    between atoms: _577  and  _578
REMARK  246  A    between atoms: _577  and  _580
REMARK  247  A    between atoms: _580  and  _581
REMARK  248  A    between atoms: _587  and  _589
REMARK  249  A    between atoms: _589  and  _590
REMARK                            x       y       z     vdW  Elec       q    Type
REMARK                         _______ _______ _______ _____ _____    ______ ____
ROOT
ATOM      1  C   ALA A   1      -2.408 -16.144   5.917  0.00  0.00    +0.238 C 
ATOM      2  N   LEU A   2      -3.217 -17.174   6.159  0.00  0.00    -0.298 N 
ATOM      3  H   LEU A   2      -4.242 -16.999   6.150  0.00  0.00    +0.150 HD
ATOM      4  O   ALA A   1      -1.184 -16.244   5.898  0.00  0.00    -0.274 OA
ENDROOT
BRANCH   1   5
ATOM      5  CA  ALA A   1      -3.100 -14.792   5.657  0.00  0.00    +0.145 C 
ATOM      6  CB  ALA A   1      -3.509 -14.157   6.991  0.00  0.00    +0.028 C 
BRANCH   5   7
ATOM      7  N   ALA A   1      -4.286 -14.979   4.799  0.00  0.00    -0.238 NA
ATOM      8  H   ALA A   1      -5.214 -14.750   5.208  0.00  0.00    +0.142 HD
ENDBRANCH   5   7
ENDBRANCH   1   5
BRANCH   2   9
ATOM      9  CA  LEU A   2      -2.762 -18.527   6.435  0.00  0.00    +0.137 C 
BRANCH   9  10
ATOM     10  C   LEU A   2      -2.287 -19.240   5.187  0.00  0.00    +0.227 C 
ATOM     11  O   LEU A   2      -1.309 -19.979   5.283  0.00  0.00    -0.286 OA
ENDBRANCH   9  10
BRANCH   9  12
ATOM     12  CB  LEU A   2      -3.826 -19.313   7.201  0.00  0.00    +0.028 C 
BRANCH  12  13
ATOM     13  CG  LEU A   2      -4.004 -18.821   8.639  0.00  0.00    +0.002 C 
ATOM     14  CD2 LEU A   2      -2.810 -19.220   9.539  0.00  0.00    +0.000 C 
ATOM     15  CD1 LEU A   2      -5.315 -19.249   9.208  0.00  0.00    +0.000 C 
ENDBRANCH  12  13
ENDBRANCH   9  12
ENDBRANCH   2   9
TORSDOF 6
REMARK  Name = ../refined-set-2016/4kao/4kao_pocket.pdb
REMARK  249 active torsions:
REMARK  status: ('A' for Active; 'I' for Inactive)
REMARK    1  A    between atoms: _1  and  _3
REMARK    2  A    between atoms: _3  and  _4
REMARK    3  A    between atoms: _3  and  _6
REMARK    4  A    between atoms: _6  and  _7
REMARK    5  A    between atoms: _10  and  _12
REMARK    6  A    between atoms: _12  and  _13
REMARK    7  A    between atoms: _15  and  _17
REMARK    8  A    between atoms: _17  and  _18
REMARK    9  A    between atoms: _17  and  _20
REMARK   10  A    between atoms: _20  and  _21
REMARK   11  A    between atoms: _21  and  _22
REMARK   12  A    between atoms: _27  and  _29
REMARK   13  A    between atoms: _29  and  _30
REMARK   14  A    between atoms: _29  and  _32
REMARK   15  A    between atoms: _32  and  _33
REMARK   16  A    between atoms: _39  and  _41
REMARK   17  A    between atoms: _41  and  _42
REMARK   18  A    between atoms: _41  and  _44
REMARK   19  A    between atoms: _47  and  _49
REMARK   20  A    between atoms: _49  and  _50
REMARK   21  A    between atoms: _49  and  _52
REMARK   22  A    between atoms: _52  and  _53
REMARK   23  A    between atoms: _58  and  _60
REMARK   24  A    between atoms: _60  and  _61
REMARK   25  A    between atoms: _60  and  _63
REMARK   26  A    between atoms: _63  and  _64
REMARK   27  A    between atoms: _64  and  _65
REMARK   28  A    between atoms: _70  and  _72
REMARK   29  A    between atoms: _72  and  _73
REMARK   30  A    between atoms: _76  and  _78
REMARK   31  A    between atoms: _78  and  _79
REMARK   32  A    between atoms: _78  and  _81
REMARK   33  A    between atoms: _84  and  _86
REMARK   34  A    between atoms: _86  and  _87
REMARK   35  A    between atoms: _90  and  _92
REMARK   36  A    between atoms: _92  and  _93
REMARK   37  A    between atoms: _92  and  _95
REMARK   38  A    between atoms: _95  and  _96
REMARK   39  A    between atoms: _99  and  _101
REMARK   40  A    between atoms: _101  and  _102
REMARK   41  A    between atoms: _101  and  _104
REMARK   42  A    between atoms: _104  and  _105
REMARK   43  A    between atoms: _105  and  _106
REMARK   44  A    between atoms: _106  and  _107
REMARK   45  A    between atoms: _107  and  _108
REMARK   46  A    between atoms: _112  and  _114
REMARK   47  A    between atoms: _114  and  _115
REMARK   48  A    between atoms: _114  and  _117
REMARK   49  A    between atoms: _117  and  _118
REMARK   50  A    between atoms: _118  and  _119
REMARK   51  A    between atoms: _122  and  _124
REMARK   52  A    between atoms: _124  and  _125
REMARK   53  A    between atoms: _124  and  _127
REMARK   54  A    between atoms: _127  and  _128
REMARK   55  A    between atoms: _128  and  _129
REMARK   56  A    between atoms: _129  and  _130
REMARK   57  A    between atoms: _130  and  _131
REMARK   58  A    between atoms: _135  and  _137
REMARK   59  A    between atoms: _137  and  _138
REMARK   60  A    between atoms: _137  and  _140
REMARK   61  A    between atoms: _140  and  _141
REMARK   62  A    between atoms: _147  and  _149
REMARK   63  A    between atoms: _149  and  _150
REMARK   64  A    between atoms: _149  and  _152
REMARK   65  A    between atoms: _152  and  _153
REMARK   66  A    between atoms: _156  and  _158
REMARK   67  A    between atoms: _158  and  _159
REMARK   68  A    between atoms: _158  and  _161
REMARK   69  A    between atoms: _161  and  _162
REMARK   70  A    between atoms: _162  and  _163
REMARK   71  A    between atoms: _168  and  _170
REMARK   72  A    between atoms: _170  and  _171
REMARK   73  A    between atoms: _170  and  _173
REMARK   74  A    between atoms: _173  and  _174
REMARK   75  A    between atoms: _174  and  _175
REMARK   76  A    between atoms: _178  and  _180
REMARK   77  A    between atoms: _180  and  _181
REMARK   78  A    between atoms: _184  and  _186
REMARK   79  A    between atoms: _186  and  _187
REMARK   80  A    between atoms: _186  and  _189
REMARK   81  A    between atoms: _189  and  _190
REMARK   82  A    between atoms: _193  and  _195
REMARK   83  A    between atoms: _195  and  _196
REMARK   84  A    between atoms: _195  and  _198
REMARK   85  A    between atoms: _198  and  _199
REMARK   86  A    between atoms: _202  and  _204
REMARK   87  A    between atoms: _204  and  _205
REMARK   88  A    between atoms: _204  and  _207
REMARK   89  A    between atoms: _207  and  _208
REMARK   90  A    between atoms: _208  and  _209
REMARK   91  A    between atoms: _211  and  _213
REMARK   92  A    between atoms: _213  and  _214
REMARK   93  A    between atoms: _213  and  _216
REMARK   94  A    between atoms: _216  and  _217
REMARK   95  A    between atoms: _217  and  _218
REMARK   96  A    between atoms: _218  and  _219
REMARK   97  A    between atoms: _228  and  _230
REMARK   98  A    between atoms: _230  and  _231
REMARK   99  A    between atoms: _230  and  _233
REMARK  100  A    between atoms: _233  and  _234
REMARK  101  A    between atoms: _234  and  _235
REMARK  102  A    between atoms: _240  and  _242
REMARK  103  A    between atoms: _242  and  _243
REMARK  104  A    between atoms: _242  and  _245
REMARK  105  A    between atoms: _245  and  _246
REMARK  106  A    between atoms: _252  and  _254
REMARK  107  A    between atoms: _254  and  _255
REMARK  108  A    between atoms: _254  and  _257
REMARK  109  A    between atoms: _257  and  _258
REMARK  110  A    between atoms: _261  and  _263
REMARK  111  A    between atoms: _263  and  _264
REMARK  112  A    between atoms: _263  and  _266
REMARK  113  A    between atoms: _266  and  _267
REMARK  114  A    between atoms: _272  and  _274
REMARK  115  A    between atoms: _274  and  _275
REMARK  116  A    between atoms: _274  and  _277
REMARK  117  A    between atoms: _277  and  _278
REMARK  118  A    between atoms: _283  and  _285
REMARK  119  A    between atoms: _285  and  _286
REMARK  120  A    between atoms: _285  and  _288
REMARK  121  A    between atoms: _288  and  _289
REMARK  122  A    between atoms: _292  and  _294
REMARK  123  A    between atoms: _294  and  _295
REMARK  124  A    between atoms: _294  and  _297
REMARK  125  A    between atoms: _300  and  _302
REMARK  126  A    between atoms: _302  and  _303
REMARK  127  A    between atoms: _302  and  _305
REMARK  128  A    between atoms: _305  and  _306
REMARK  129  A    between atoms: _306  and  _307
REMARK  130  A    between atoms: _307  and  _308
REMARK  131  A    between atoms: _308  and  _309
REMARK  132  A    between atoms: _313  and  _315
REMARK  133  A    between atoms: _315  and  _316
REMARK  134  A    between atoms: _315  and  _318
REMARK  135  A    between atoms: _318  and  _319
REMARK  136  A    between atoms: _322  and  _324
REMARK  137  A    between atoms: _324  and  _325
REMARK  138  A    between atoms: _324  and  _327
REMARK  139  A    between atoms: _327  and  _328
REMARK  140  A    between atoms: _331  and  _333
REMARK  141  A    between atoms: _333  and  _334
REMARK  142  A    between atoms: _333  and  _336
REMARK  143  A    between atoms: _336  and  _337
REMARK  144  A    between atoms: _340  and  _342
REMARK  145  A    between atoms: _342  and  _343
REMARK  146  A    between atoms: _342  and  _345
REMARK  147  A    between atoms: _345  and  _346
REMARK  148  A    between atoms: _346  and  _347
REMARK  149  A    between atoms: _349  and  _351
REMARK  150  A    between atoms: _351  and  _352
REMARK  151  A    between atoms: _351  and  _354
REMARK  152  A    between atoms: _354  and  _355
REMARK  153  A    between atoms: _355  and  _356
REMARK  154  A    between atoms: _359  and  _361
REMARK  155  A    between atoms: _361  and  _362
REMARK  156  A    between atoms: _361  and  _364
REMARK  157  A    between atoms: _364  and  _365
REMARK  158  A    between atoms: _368  and  _370
REMARK  159  A    between atoms: _370  and  _371
REMARK  160  A    between atoms: _370  and  _373
REMARK  161  A    between atoms: _375  and  _377
REMARK  162  A    between atoms: _377  and  _378
REMARK  163  A    between atoms: _377  and  _380
REMARK  164  A    between atoms: _380  and  _381
REMARK  165  A    between atoms: _384  and  _386
REMARK  166  A    between atoms: _386  and  _387
REMARK  167  A    between atoms: _386  and  _389
REMARK  168  A    between atoms: _389  and  _390
REMARK  169  A    between atoms: _393  and  _395
REMARK  170  A    between atoms: _395  and  _396
REMARK  171  A    between atoms: _398  and  _400
REMARK  172  A    between atoms: _400  and  _401
REMARK  173  A    between atoms: _400  and  _403
REMARK  174  A    between atoms: _403  and  _404
REMARK  175  A    between atoms: _404  and  _405
REMARK  176  A    between atoms: _408  and  _410
REMARK  177  A    between atoms: _410  and  _411
REMARK  178  A    between atoms: _414  and  _416
REMARK  179  A    between atoms: _416  and  _417
REMARK  180  A    between atoms: _416  and  _419
REMARK  181  A    between atoms: _419  and  _420
REMARK  182  A    between atoms: _423  and  _425
REMARK  183  A    between atoms: _425  and  _426
REMARK  184  A    between atoms: _425  and  _428
REMARK  185  A    between atoms: _428  and  _429
REMARK  186  A    between atoms: _434  and  _435
REMARK  187  A    between atoms: _437  and  _439
REMARK  188  A    between atoms: _439  and  _440
REMARK  189  A    between atoms: _439  and  _442
REMARK  190  A    between atoms: _442  and  _443
REMARK  191  A    between atoms: _446  and  _448
REMARK  192  A    between atoms: _448  and  _449
REMARK  193  A    between atoms: _448  and  _451
REMARK  194  A    between atoms: _451  and  _452
REMARK  195  A    between atoms: _458  and  _460
REMARK  196  A    between atoms: _460  and  _461
REMARK  197  A    between atoms: _460  and  _463
REMARK  198  A    between atoms: _466  and  _468
REMARK  199  A    between atoms: _468  and  _469
REMARK  200  A    between atoms: _468  and  _471
REMARK  201  A    between atoms: _471  and  _472
REMARK  202  A    between atoms: _477  and  _479
REMARK  203  A    between atoms: _479  and  _480
REMARK  204  A    between atoms: _479  and  _482
REMARK  205  A    between atoms: _482  and  _483
REMARK  206  A    between atoms: _483  and  _484
REMARK  207  A    between atoms: _484  and  _485
REMARK  208  A    between atoms: _494  and  _496
REMARK  209  A    between atoms: _496  and  _497
REMARK  210  A    between atoms: _496  and  _499
REMARK  211  A    between atoms: _499  and  _500
REMARK  212  A    between atoms: _503  and  _505
REMARK  213  A    between atoms: _505  and  _506
REMARK  214  A    between atoms: _505  and  _508
REMARK  215  A    between atoms: _508  and  _509
REMARK  216  A    between atoms: _514  and  _516
REMARK  217  A    between atoms: _516  and  _517
REMARK  218  A    between atoms: _516  and  _519
REMARK  219  A    between atoms: _519  and  _520
REMARK  220  A    between atoms: _523  and  _525
REMARK  221  A    between atoms: _525  and  _526
REMARK  222  A    between atoms: _525  and  _528
REMARK  223  A    between atoms: _531  and  _533
REMARK  224  A    between atoms: _533  and  _534
REMARK  225  A    between atoms: _533  and  _536
REMARK  226  A    between atoms: _536  and  _537
REMARK  227  A    between atoms: _539  and  _541
REMARK  228  A    between atoms: _541  and  _542
REMARK  229  A    between atoms: _541  and  _544
REMARK  230  A    between atoms: _544  and  _545
REMARK  231  A    between atoms: _545  and  _546
REMARK  232  A    between atoms: _546  and  _547
REMARK  233  A    between atoms: _547  and  _548
REMARK  234  A    between atoms: _552  and  _554
REMARK  235  A    between atoms: _554  and  _555
REMARK  236  A    between atoms: _554  and  _557
REMARK  237  A    between atoms: _557  and  _558
REMARK  238  A    between atoms: _561  and  _563
REMARK  239  A    between atoms: _563  and  _564
REMARK  240  A    between atoms: _566  and  _568
REMARK  241  A    between atoms: _568  and  _569
REMARK  242  A    between atoms: _568  and  _571
REMARK  243  A    between atoms: _571  and  _572
REMARK  244  A    between atoms: _575  and  _577
REMARK  245  A    between atoms: _577  and  _578
REMARK  246  A    between atoms: _577  and  _580
REMARK  247  A    between atoms: _580  and  _581
REMARK  248  A    between atoms: _587  and  _589
REMARK  249  A    between atoms: _589  and  _590
REMARK                            x       y       z     vdW  Elec       q    Type
REMARK                         _______ _______ _______ _____ _____    ______ ____
ROOT
ATOM      1  CA  TYR A   1       0.528 -17.046   2.641  0.00  0.00    +0.149 C 
ENDROOT
BRANCH   1   2
ATOM      2  C   TYR A   1       1.571 -17.686   3.575  0.00  0.00    +0.239 C 
ATOM      3  N   LEU A   2       1.218 -17.955   4.843  0.00  0.00    -0.298 N 
ATOM      4  H   LEU A   2       0.260 -17.705   5.162  0.00  0.00    +0.150 HD
ATOM      5  O   TYR A   1       2.671 -17.957   3.121  0.00  0.00    -0.274 OA
BRANCH   3   6
ATOM      6  CA  LEU A   2       2.143 -18.593   5.796  0.00  0.00    +0.137 C 
BRANCH   6   7
ATOM      7  C   LEU A   2       2.514 -20.012   5.358  0.00  0.00    +0.227 C 
ATOM      8  O   LEU A   2       3.701 -20.351   5.327  0.00  0.00    -0.286 OA
ENDBRANCH   6   7
BRANCH   6   9
ATOM      9  CB  LEU A   2       1.609 -18.571   7.234  0.00  0.00    +0.028 C 
BRANCH   9  10
ATOM     10  CG  LEU A   2       1.524 -17.200   7.885  0.00  0.00    +0.002 C 
ATOM     11  CD2 LEU A   2       0.935 -17.298   9.255  0.00  0.00    +0.000 C 
ATOM     12  CD1 LEU A   2       2.886 -16.500   7.929  0.00  0.00    +0.000 C 
ENDBRANCH   9  10
ENDBRANCH   6   9
ENDBRANCH   3   6
ENDBRANCH   1   2
BRANCH   1  13
ATOM     13  N   TYR A   1      -0.764 -17.703   2.788  0.00  0.00    -0.238 NA
ATOM     14  H   TYR A   1      -1.545 -17.156   3.203  0.00  0.00    +0.142 HD
ENDBRANCH   1  13
BRANCH   1  15
ATOM     15  CB  TYR A   1       0.405 -15.525   2.837  0.00  0.00    +0.053 C 
BRANCH  15  16
ATOM     16  CG  TYR A   1       1.729 -14.798   2.962  0.00  0.00    -0.020 A 
ATOM     17  CD2 TYR A   1       2.242 -14.454   4.212  0.00  0.00    -0.001 A 
ATOM     18  CE2 TYR A   1       3.476 -13.819   4.345  0.00  0.00    +0.036 A 
ATOM     19  CZ  TYR A   1       4.198 -13.489   3.218  0.00  0.00    +0.134 A 
ATOM     20  CE1 TYR A   1       3.704 -13.802   1.952  0.00  0.00    +0.036 A 
ATOM     21  CD1 TYR A   1       2.476 -14.462   1.832  0.00  0.00    -0.001 A 
BRANCH  19  22
ATOM     22  OH  TYR A   1       5.403 -12.865   3.409  0.00  0.00    -0.506 OA
ATOM     23  HH  TYR A   1       5.558 -12.739   4.379  0.00  0.00    +0.292 HD
ENDBRANCH  19  22
ENDBRANCH  15  16
ENDBRANCH   1  15
TORSDOF 9
REMARK  Name = ../refined-set-2016/4kao/4kao_pocket.pdb
REMARK  249 active torsions:
REMARK  status: ('A' for Active; 'I' for Inactive)
REMARK    1  A    between atoms: _1  and  _3
REMARK    2  A    between atoms: _3  and  _4
REMARK    3  A    between atoms: _3  and  _6
REMARK    4  A    between atoms: _6  and  _7
REMARK    5  A    between atoms: _10  and  _12
REMARK    6  A    between atoms: _12  and  _13
REMARK    7  A    between atoms: _15  and  _17
REMARK    8  A    between atoms: _17  and  _18
REMARK    9  A    between atoms: _17  and  _20
REMARK   10  A    between atoms: _20  and  _21
REMARK   11  A    between atoms: _21  and  _22
REMARK   12  A    between atoms: _27  and  _29
REMARK   13  A    between atoms: _29  and  _30
REMARK   14  A    between atoms: _29  and  _32
REMARK   15  A    between atoms: _32  and  _33
REMARK   16  A    between atoms: _39  and  _41
REMARK   17  A    between atoms: _41  and  _42
REMARK   18  A    between atoms: _41  and  _44
REMARK   19  A    between atoms: _47  and  _49
REMARK   20  A    between atoms: _49  and  _50
REMARK   21  A    between atoms: _49  and  _52
REMARK   22  A    between atoms: _52  and  _53
REMARK   23  A    between atoms: _58  and  _60
REMARK   24  A    between atoms: _60  and  _61
REMARK   25  A    between atoms: _60  and  _63
REMARK   26  A    between atoms: _63  and  _64
REMARK   27  A    between atoms: _64  and  _65
REMARK   28  A    between atoms: _70  and  _72
REMARK   29  A    between atoms: _72  and  _73
REMARK   30  A    between atoms: _76  and  _78
REMARK   31  A    between atoms: _78  and  _79
REMARK   32  A    between atoms: _78  and  _81
REMARK   33  A    between atoms: _84  and  _86
REMARK   34  A    between atoms: _86  and  _87
REMARK   35  A    between atoms: _90  and  _92
REMARK   36  A    between atoms: _92  and  _93
REMARK   37  A    between atoms: _92  and  _95
REMARK   38  A    between atoms: _95  and  _96
REMARK   39  A    between atoms: _99  and  _101
REMARK   40  A    between atoms: _101  and  _102
REMARK   41  A    between atoms: _101  and  _104
REMARK   42  A    between atoms: _104  and  _105
REMARK   43  A    between atoms: _105  and  _106
REMARK   44  A    between atoms: _106  and  _107
REMARK   45  A    between atoms: _107  and  _108
REMARK   46  A    between atoms: _112  and  _114
REMARK   47  A    between atoms: _114  and  _115
REMARK   48  A    between atoms: _114  and  _117
REMARK   49  A    between atoms: _117  and  _118
REMARK   50  A    between atoms: _118  and  _119
REMARK   51  A    between atoms: _122  and  _124
REMARK   52  A    between atoms: _124  and  _125
REMARK   53  A    between atoms: _124  and  _127
REMARK   54  A    between atoms: _127  and  _128
REMARK   55  A    between atoms: _128  and  _129
REMARK   56  A    between atoms: _129  and  _130
REMARK   57  A    between atoms: _130  and  _131
REMARK   58  A    between atoms: _135  and  _137
REMARK   59  A    between atoms: _137  and  _138
REMARK   60  A    between atoms: _137  and  _140
REMARK   61  A    between atoms: _140  and  _141
REMARK   62  A    between atoms: _147  and  _149
REMARK   63  A    between atoms: _149  and  _150
REMARK   64  A    between atoms: _149  and  _152
REMARK   65  A    between atoms: _152  and  _153
REMARK   66  A    between atoms: _156  and  _158
REMARK   67  A    between atoms: _158  and  _159
REMARK   68  A    between atoms: _158  and  _161
REMARK   69  A    between atoms: _161  and  _162
REMARK   70  A    between atoms: _162  and  _163
REMARK   71  A    between atoms: _168  and  _170
REMARK   72  A    between atoms: _170  and  _171
REMARK   73  A    between atoms: _170  and  _173
REMARK   74  A    between atoms: _173  and  _174
REMARK   75  A    between atoms: _174  and  _175
REMARK   76  A    between atoms: _178  and  _180
REMARK   77  A    between atoms: _180  and  _181
REMARK   78  A    between atoms: _184  and  _186
REMARK   79  A    between atoms: _186  and  _187
REMARK   80  A    between atoms: _186  and  _189
REMARK   81  A    between atoms: _189  and  _190
REMARK   82  A    between atoms: _193  and  _195
REMARK   83  A    between atoms: _195  and  _196
REMARK   84  A    between atoms: _195  and  _198
REMARK   85  A    between atoms: _198  and  _199
REMARK   86  A    between atoms: _202  and  _204
REMARK   87  A    between atoms: _204  and  _205
REMARK   88  A    between atoms: _204  and  _207
REMARK   89  A    between atoms: _207  and  _208
REMARK   90  A    between atoms: _208  and  _209
REMARK   91  A    between atoms: _211  and  _213
REMARK   92  A    between atoms: _213  and  _214
REMARK   93  A    between atoms: _213  and  _216
REMARK   94  A    between atoms: _216  and  _217
REMARK   95  A    between atoms: _217  and  _218
REMARK   96  A    between atoms: _218  and  _219
REMARK   97  A    between atoms: _228  and  _230
REMARK   98  A    between atoms: _230  and  _231
REMARK   99  A    between atoms: _230  and  _233
REMARK  100  A    between atoms: _233  and  _234
REMARK  101  A    between atoms: _234  and  _235
REMARK  102  A    between atoms: _240  and  _242
REMARK  103  A    between atoms: _242  and  _243
REMARK  104  A    between atoms: _242  and  _245
REMARK  105  A    between atoms: _245  and  _246
REMARK  106  A    between atoms: _252  and  _254
REMARK  107  A    between atoms: _254  and  _255
REMARK  108  A    between atoms: _254  and  _257
REMARK  109  A    between atoms: _257  and  _258
REMARK  110  A    between atoms: _261  and  _263
REMARK  111  A    between atoms: _263  and  _264
REMARK  112  A    between atoms: _263  and  _266
REMARK  113  A    between atoms: _266  and  _267
REMARK  114  A    between atoms: _272  and  _274
REMARK  115  A    between atoms: _274  and  _275
REMARK  116  A    between atoms: _274  and  _277
REMARK  117  A    between atoms: _277  and  _278
REMARK  118  A    between atoms: _283  and  _285
REMARK  119  A    between atoms: _285  and  _286
REMARK  120  A    between atoms: _285  and  _288
REMARK  121  A    between atoms: _288  and  _289
REMARK  122  A    between atoms: _292  and  _294
REMARK  123  A    between atoms: _294  and  _295
REMARK  124  A    between atoms: _294  and  _297
REMARK  125  A    between atoms: _300  and  _302
REMARK  126  A    between atoms: _302  and  _303
REMARK  127  A    between atoms: _302  and  _305
REMARK  128  A    between atoms: _305  and  _306
REMARK  129  A    between atoms: _306  and  _307
REMARK  130  A    between atoms: _307  and  _308
REMARK  131  A    between atoms: _308  and  _309
REMARK  132  A    between atoms: _313  and  _315
REMARK  133  A    between atoms: _315  and  _316
REMARK  134  A    between atoms: _315  and  _318
REMARK  135  A    between atoms: _318  and  _319
REMARK  136  A    between atoms: _322  and  _324
REMARK  137  A    between atoms: _324  and  _325
REMARK  138  A    between atoms: _324  and  _327
REMARK  139  A    between atoms: _327  and  _328
REMARK  140  A    between atoms: _331  and  _333
REMARK  141  A    between atoms: _333  and  _334
REMARK  142  A    between atoms: _333  and  _336
REMARK  143  A    between atoms: _336  and  _337
REMARK  144  A    between atoms: _340  and  _342
REMARK  145  A    between atoms: _342  and  _343
REMARK  146  A    between atoms: _342  and  _345
REMARK  147  A    between atoms: _345  and  _346
REMARK  148  A    between atoms: _346  and  _347
REMARK  149  A    between atoms: _349  and  _351
REMARK  150  A    between atoms: _351  and  _352
REMARK  151  A    between atoms: _351  and  _354
REMARK  152  A    between atoms: _354  and  _355
REMARK  153  A    between atoms: _355  and  _356
REMARK  154  A    between atoms: _359  and  _361
REMARK  155  A    between atoms: _361  and  _362
REMARK  156  A    between atoms: _361  and  _364
REMARK  157  A    between atoms: _364  and  _365
REMARK  158  A    between atoms: _368  and  _370
REMARK  159  A    between atoms: _370  and  _371
REMARK  160  A    between atoms: _370  and  _373
REMARK  161  A    between atoms: _375  and  _377
REMARK  162  A    between atoms: _377  and  _378
REMARK  163  A    between atoms: _377  and  _380
REMARK  164  A    between atoms: _380  and  _381
REMARK  165  A    between atoms: _384  and  _386
REMARK  166  A    between atoms: _386  and  _387
REMARK  167  A    between atoms: _386  and  _389
REMARK  168  A    between atoms: _389  and  _390
REMARK  169  A    between atoms: _393  and  _395
REMARK  170  A    between atoms: _395  and  _396
REMARK  171  A    between atoms: _398  and  _400
REMARK  172  A    between atoms: _400  and  _401
REMARK  173  A    between atoms: _400  and  _403
REMARK  174  A    between atoms: _403  and  _404
REMARK  175  A    between atoms: _404  and  _405
REMARK  176  A    between atoms: _408  and  _410
REMARK  177  A    between atoms: _410  and  _411
REMARK  178  A    between atoms: _414  and  _416
REMARK  179  A    between atoms: _416  and  _417
REMARK  180  A    between atoms: _416  and  _419
REMARK  181  A    between atoms: _419  and  _420
REMARK  182  A    between atoms: _423  and  _425
REMARK  183  A    between atoms: _425  and  _426
REMARK  184  A    between atoms: _425  and  _428
REMARK  185  A    between atoms: _428  and  _429
REMARK  186  A    between atoms: _434  and  _435
REMARK  187  A    between atoms: _437  and  _439
REMARK  188  A    between atoms: _439  and  _440
REMARK  189  A    between atoms: _439  and  _442
REMARK  190  A    between atoms: _442  and  _443
REMARK  191  A    between atoms: _446  and  _448
REMARK  192  A    between atoms: _448  and  _449
REMARK  193  A    between atoms: _448  and  _451
REMARK  194  A    between atoms: _451  and  _452
REMARK  195  A    between atoms: _458  and  _460
REMARK  196  A    between atoms: _460  and  _461
REMARK  197  A    between atoms: _460  and  _463
REMARK  198  A    between atoms: _466  and  _468
REMARK  199  A    between atoms: _468  and  _469
REMARK  200  A    between atoms: _468  and  _471
REMARK  201  A    between atoms: _471  and  _472
REMARK  202  A    between atoms: _477  and  _479
REMARK  203  A    between atoms: _479  and  _480
REMARK  204  A    between atoms: _479  and  _482
REMARK  205  A    between atoms: _482  and  _483
REMARK  206  A    between atoms: _483  and  _484
REMARK  207  A    between atoms: _484  and  _485
REMARK  208  A    between atoms: _494  and  _496
REMARK  209  A    between atoms: _496  and  _497
REMARK  210  A    between atoms: _496  and  _499
REMARK  211  A    between atoms: _499  and  _500
REMARK  212  A    between atoms: _503  and  _505
REMARK  213  A    between atoms: _505  and  _506
REMARK  214  A    between atoms: _505  and  _508
REMARK  215  A    between atoms: _508  and  _509
REMARK  216  A    between atoms: _514  and  _516
REMARK  217  A    between atoms: _516  and  _517
REMARK  218  A    between atoms: _516  and  _519
REMARK  219  A    between atoms: _519  and  _520
REMARK  220  A    between atoms: _523  and  _525
REMARK  221  A    between atoms: _525  and  _526
REMARK  222  A    between atoms: _525  and  _528
REMARK  223  A    between atoms: _531  and  _533
REMARK  224  A    between atoms: _533  and  _534
REMARK  225  A    between atoms: _533  and  _536
REMARK  226  A    between atoms: _536  and  _537
REMARK  227  A    between atoms: _539  and  _541
REMARK  228  A    between atoms: _541  and  _542
REMARK  229  A    between atoms: _541  and  _544
REMARK  230  A    between atoms: _544  and  _545
REMARK  231  A    between atoms: _545  and  _546
REMARK  232  A    between atoms: _546  and  _547
REMARK  233  A    between atoms: _547  and  _548
REMARK  234  A    between atoms: _552  and  _554
REMARK  235  A    between atoms: _554  and  _555
REMARK  236  A    between atoms: _554  and  _557
REMARK  237  A    between atoms: _557  and  _558
REMARK  238  A    between atoms: _561  and  _563
REMARK  239  A    between atoms: _563  and  _564
REMARK  240  A    between atoms: _566  and  _568
REMARK  241  A    between atoms: _568  and  _569
REMARK  242  A    between atoms: _568  and  _571
REMARK  243  A    between atoms: _571  and  _572
REMARK  244  A    between atoms: _575  and  _577
REMARK  245  A    between atoms: _577  and  _578
REMARK  246  A    between atoms: _577  and  _580
REMARK  247  A    between atoms: _580  and  _581
REMARK  248  A    between atoms: _587  and  _589
REMARK  249  A    between atoms: _589  and  _590
REMARK                            x       y       z     vdW  Elec       q    Type
REMARK                         _______ _______ _______ _____ _____    ______ ____
ROOT
ATOM      1  CA  HIS A   3       1.577 -20.678  13.270  0.00  0.00    +0.155 C 
ENDROOT
BRANCH   1   4
ATOM      2  C   VAL A   2       3.149 -22.276  12.130  0.00  0.00    +0.241 C 
ATOM      3  O   VAL A   2       4.091 -22.001  12.857  0.00  0.00    -0.273 OA
ATOM      4  N   HIS A   3       1.935 -21.689  12.262  0.00  0.00    -0.297 N 
ATOM      5  H   HIS A   3       1.192 -21.978  11.594  0.00  0.00    +0.150 HD
BRANCH   2   6
ATOM      6  CA  VAL A   2       3.370 -23.298  10.963  0.00  0.00    +0.148 C 
BRANCH   6   8
ATOM      7  C   PHE A   1       4.304 -22.132   8.947  0.00  0.00    +0.239 C 
ATOM      8  N   VAL A   2       4.460 -22.759  10.116  0.00  0.00    -0.297 N 
ATOM      9  H   VAL A   2       5.433 -22.880  10.463  0.00  0.00    +0.150 HD
ATOM     10  O   PHE A   1       3.204 -21.915   8.444  0.00  0.00    -0.274 OA
BRANCH   7  11
ATOM     11  CA  PHE A   1       5.571 -21.636   8.251  0.00  0.00    +0.149 C 
BRANCH  11  12
ATOM     12  N   PHE A   1       5.617 -22.122   6.874  0.00  0.00    -0.238 NA
ATOM     13  H   PHE A   1       4.984 -21.658   6.192  0.00  0.00    +0.142 HD
ENDBRANCH  11  12
BRANCH  11  14
ATOM     14  CB  PHE A   1       5.633 -20.094   8.273  0.00  0.00    +0.053 C 
BRANCH  14  15
ATOM     15  CG  PHE A   1       5.773 -19.550   9.675  0.00  0.00    -0.020 A 
ATOM     16  CD2 PHE A   1       4.659 -19.076  10.371  0.00  0.00    -0.004 A 
ATOM     17  CE2 PHE A   1       4.775 -18.631  11.704  0.00  0.00    -0.000 A 
ATOM     18  CZ  PHE A   1       6.016 -18.639  12.328  0.00  0.00    -0.000 A 
ATOM     19  CE1 PHE A   1       7.132 -19.110  11.656  0.00  0.00    -0.000 A 
ATOM     20  CD1 PHE A   1       7.011 -19.565  10.327  0.00  0.00    -0.004 A 
ENDBRANCH  14  15
ENDBRANCH  11  14
ENDBRANCH   7  11
ENDBRANCH   6   8
BRANCH   6  21
ATOM     21  CB  VAL A   2       3.750 -24.725  11.497  0.00  0.00    +0.027 C 
ATOM     22  CG2 VAL A   2       2.656 -25.313  12.387  0.00  0.00    +0.002 C 
ATOM     23  CG1 VAL A   2       4.081 -25.682  10.355  0.00  0.00    +0.002 C 
ENDBRANCH   6  21
ENDBRANCH   2   6
ENDBRANCH   1   4
BRANCH   1  24
ATOM     24  C   HIS A   3       1.502 -21.267  14.689  0.00  0.00    +0.241 C 
ATOM     25  O   HIS A   3       1.973 -20.627  15.641  0.00  0.00    -0.273 OA
ATOM     26  N   ARG A   4       0.897 -22.476  14.827  0.00  0.00    -0.297 N 
ATOM     27  H   ARG A   4       0.510 -22.903  13.961  0.00  0.00    +0.150 HD
BRANCH  26  28
ATOM     28  CA  ARG A   4       0.730 -23.249  16.076  0.00  0.00    +0.149 C 
BRANCH  28  29
ATOM     29  C   ARG A   4      -0.315 -22.677  17.073  0.00  0.00    +0.241 C 
ATOM     30  O   ARG A   4      -0.682 -23.373  18.029  0.00  0.00    -0.273 OA
ATOM     31  N   ASP A   5      -0.844 -21.465  16.836  0.00  0.00    -0.298 N 
ATOM     32  H   ASP A   5      -0.571 -20.937  15.983  0.00  0.00    +0.150 HD
BRANCH  31  33
ATOM     33  CA  ASP A   5      -1.803 -20.887  17.776  0.00  0.00    +0.148 C 
BRANCH  33  34
ATOM     34  C   ASP A   5      -2.883 -20.038  17.104  0.00  0.00    +0.227 C 
ATOM     35  O   ASP A   5      -3.077 -18.863  17.448  0.00  0.00    -0.286 OA
ENDBRANCH  33  34
BRANCH  33  36
ATOM     36  CB  ASP A   5      -1.047 -20.107  18.882  0.00  0.00    +0.142 C 
BRANCH  36  37
ATOM     37  CG  ASP A   5      -1.830 -19.829  20.164  0.00  0.00    +0.367 C 
ATOM     38  OD2 ASP A   5      -1.450 -18.881  20.891  0.00  0.00    -0.246 OA
ATOM     39  OD1 ASP A   5      -2.829 -20.553  20.431  0.00  0.00    -0.246 OA
ENDBRANCH  36  37
ENDBRANCH  33  36
ENDBRANCH  31  33
ENDBRANCH  28  29
BRANCH  28  40
ATOM     40  CB  ARG A   4       2.080 -23.499  16.801  0.00  0.00    +0.033 C 
BRANCH  40  41
ATOM     41  CG  ARG A   4       3.227 -23.859  15.856  0.00  0.00    +0.045 C 
BRANCH  41  42
ATOM     42  CD  ARG A   4       4.390 -24.602  16.411  0.00  0.00    +0.174 C 
BRANCH  42  43
ATOM     43  NE  ARG A   4       5.116 -23.988  17.520  0.00  0.00    -0.265 N 
ATOM     44  CZ  ARG A   4       5.900 -24.693  18.316  0.00  0.00    +0.342 C 
ATOM     45  NH2 ARG A   4       6.565 -24.094  19.296  0.00  0.00    -0.292 N 
ATOM     46 HH21 ARG A   4       7.182 -24.650  19.922  0.00  0.00    +0.255 HD
ATOM     47 HH22 ARG A   4       6.469 -23.068  19.438  0.00  0.00    +0.255 HD
ATOM     48  NH1 ARG A   4       6.029 -26.001  18.144  0.00  0.00    -0.292 N 
ATOM     49 HH11 ARG A   4       6.648 -26.550  18.774  0.00  0.00    +0.255 HD
ATOM     50 HH12 ARG A   4       5.511 -26.478  17.379  0.00  0.00    +0.255 HD
ATOM     51  HE  ARG A   4       5.013 -22.967  17.688  0.00  0.00    +0.259 HD
ENDBRANCH  42  43
ENDBRANCH  41  42
ENDBRANCH  40  41
ENDBRANCH  28  40
ENDBRANCH  26  28
ENDBRANCH   1  24
BRANCH   1  52
ATOM     52  CB  HIS A   3       0.265 -19.967  12.909  0.00  0.00    +0.076 C 
BRANCH  52  53
ATOM     53  CG  HIS A   3      -0.074 -18.802  13.797  0.00  0.00    +0.082 A 
ATOM     54  ND1 HIS A   3      -0.516 -18.984  15.111  0.00  0.00    -0.227 NA
ATOM     55  CE1 HIS A   3      -0.718 -17.776  15.602  0.00  0.00    +0.199 A 
ATOM     56  NE2 HIS A   3      -0.461 -16.834  14.687  0.00  0.00    -0.221 NA
ATOM     57  CD2 HIS A   3      -0.052 -17.481  13.528  0.00  0.00    +0.115 A 
ENDBRANCH  52  53
ENDBRANCH   1  52
TORSDOF 21
REMARK  Name = ../refined-set-2016/4kao/4kao_pocket.pdb
REMARK  249 active torsions:
REMARK  status: ('A' for Active; 'I' for Inactive)
REMARK    1  A    between atoms: _1  and  _3
REMARK    2  A    between atoms: _3  and  _4
REMARK    3  A    between atoms: _3  and  _6
REMARK    4  A    between atoms: _6  and  _7
REMARK    5  A    between atoms: _10  and  _12
REMARK    6  A    between atoms: _12  and  _13
REMARK    7  A    between atoms: _15  and  _17
REMARK    8  A    between atoms: _17  and  _18
REMARK    9  A    between atoms: _17  and  _20
REMARK   10  A    between atoms: _20  and  _21
REMARK   11  A    between atoms: _21  and  _22
REMARK   12  A    between atoms: _27  and  _29
REMARK   13  A    between atoms: _29  and  _30
REMARK   14  A    between atoms: _29  and  _32
REMARK   15  A    between atoms: _32  and  _33
REMARK   16  A    between atoms: _39  and  _41
REMARK   17  A    between atoms: _41  and  _42
REMARK   18  A    between atoms: _41  and  _44
REMARK   19  A    between atoms: _47  and  _49
REMARK   20  A    between atoms: _49  and  _50
REMARK   21  A    between atoms: _49  and  _52
REMARK   22  A    between atoms: _52  and  _53
REMARK   23  A    between atoms: _58  and  _60
REMARK   24  A    between atoms: _60  and  _61
REMARK   25  A    between atoms: _60  and  _63
REMARK   26  A    between atoms: _63  and  _64
REMARK   27  A    between atoms: _64  and  _65
REMARK   28  A    between atoms: _70  and  _72
REMARK   29  A    between atoms: _72  and  _73
REMARK   30  A    between atoms: _76  and  _78
REMARK   31  A    between atoms: _78  and  _79
REMARK   32  A    between atoms: _78  and  _81
REMARK   33  A    between atoms: _84  and  _86
REMARK   34  A    between atoms: _86  and  _87
REMARK   35  A    between atoms: _90  and  _92
REMARK   36  A    between atoms: _92  and  _93
REMARK   37  A    between atoms: _92  and  _95
REMARK   38  A    between atoms: _95  and  _96
REMARK   39  A    between atoms: _99  and  _101
REMARK   40  A    between atoms: _101  and  _102
REMARK   41  A    between atoms: _101  and  _104
REMARK   42  A    between atoms: _104  and  _105
REMARK   43  A    between atoms: _105  and  _106
REMARK   44  A    between atoms: _106  and  _107
REMARK   45  A    between atoms: _107  and  _108
REMARK   46  A    between atoms: _112  and  _114
REMARK   47  A    between atoms: _114  and  _115
REMARK   48  A    between atoms: _114  and  _117
REMARK   49  A    between atoms: _117  and  _118
REMARK   50  A    between atoms: _118  and  _119
REMARK   51  A    between atoms: _122  and  _124
REMARK   52  A    between atoms: _124  and  _125
REMARK   53  A    between atoms: _124  and  _127
REMARK   54  A    between atoms: _127  and  _128
REMARK   55  A    between atoms: _128  and  _129
REMARK   56  A    between atoms: _129  and  _130
REMARK   57  A    between atoms: _130  and  _131
REMARK   58  A    between atoms: _135  and  _137
REMARK   59  A    between atoms: _137  and  _138
REMARK   60  A    between atoms: _137  and  _140
REMARK   61  A    between atoms: _140  and  _141
REMARK   62  A    between atoms: _147  and  _149
REMARK   63  A    between atoms: _149  and  _150
REMARK   64  A    between atoms: _149  and  _152
REMARK   65  A    between atoms: _152  and  _153
REMARK   66  A    between atoms: _156  and  _158
REMARK   67  A    between atoms: _158  and  _159
REMARK   68  A    between atoms: _158  and  _161
REMARK   69  A    between atoms: _161  and  _162
REMARK   70  A    between atoms: _162  and  _163
REMARK   71  A    between atoms: _168  and  _170
REMARK   72  A    between atoms: _170  and  _171
REMARK   73  A    between atoms: _170  and  _173
REMARK   74  A    between atoms: _173  and  _174
REMARK   75  A    between atoms: _174  and  _175
REMARK   76  A    between atoms: _178  and  _180
REMARK   77  A    between atoms: _180  and  _181
REMARK   78  A    between atoms: _184  and  _186
REMARK   79  A    between atoms: _186  and  _187
REMARK   80  A    between atoms: _186  and  _189
REMARK   81  A    between atoms: _189  and  _190
REMARK   82  A    between atoms: _193  and  _195
REMARK   83  A    between atoms: _195  and  _196
REMARK   84  A    between atoms: _195  and  _198
REMARK   85  A    between atoms: _198  and  _199
REMARK   86  A    between atoms: _202  and  _204
REMARK   87  A    between atoms: _204  and  _205
REMARK   88  A    between atoms: _204  and  _207
REMARK   89  A    between atoms: _207  and  _208
REMARK   90  A    between atoms: _208  and  _209
REMARK   91  A    between atoms: _211  and  _213
REMARK   92  A    between atoms: _213  and  _214
REMARK   93  A    between atoms: _213  and  _216
REMARK   94  A    between atoms: _216  and  _217
REMARK   95  A    between atoms: _217  and  _218
REMARK   96  A    between atoms: _218  and  _219
REMARK   97  A    between atoms: _228  and  _230
REMARK   98  A    between atoms: _230  and  _231
REMARK   99  A    between atoms: _230  and  _233
REMARK  100  A    between atoms: _233  and  _234
REMARK  101  A    between atoms: _234  and  _235
REMARK  102  A    between atoms: _240  and  _242
REMARK  103  A    between atoms: _242  and  _243
REMARK  104  A    between atoms: _242  and  _245
REMARK  105  A    between atoms: _245  and  _246
REMARK  106  A    between atoms: _252  and  _254
REMARK  107  A    between atoms: _254  and  _255
REMARK  108  A    between atoms: _254  and  _257
REMARK  109  A    between atoms: _257  and  _258
REMARK  110  A    between atoms: _261  and  _263
REMARK  111  A    between atoms: _263  and  _264
REMARK  112  A    between atoms: _263  and  _266
REMARK  113  A    between atoms: _266  and  _267
REMARK  114  A    between atoms: _272  and  _274
REMARK  115  A    between atoms: _274  and  _275
REMARK  116  A    between atoms: _274  and  _277
REMARK  117  A    between atoms: _277  and  _278
REMARK  118  A    between atoms: _283  and  _285
REMARK  119  A    between atoms: _285  and  _286
REMARK  120  A    between atoms: _285  and  _288
REMARK  121  A    between atoms: _288  and  _289
REMARK  122  A    between atoms: _292  and  _294
REMARK  123  A    between atoms: _294  and  _295
REMARK  124  A    between atoms: _294  and  _297
REMARK  125  A    between atoms: _300  and  _302
REMARK  126  A    between atoms: _302  and  _303
REMARK  127  A    between atoms: _302  and  _305
REMARK  128  A    between atoms: _305  and  _306
REMARK  129  A    between atoms: _306  and  _307
REMARK  130  A    between atoms: _307  and  _308
REMARK  131  A    between atoms: _308  and  _309
REMARK  132  A    between atoms: _313  and  _315
REMARK  133  A    between atoms: _315  and  _316
REMARK  134  A    between atoms: _315  and  _318
REMARK  135  A    between atoms: _318  and  _319
REMARK  136  A    between atoms: _322  and  _324
REMARK  137  A    between atoms: _324  and  _325
REMARK  138  A    between atoms: _324  and  _327
REMARK  139  A    between atoms: _327  and  _328
REMARK  140  A    between atoms: _331  and  _333
REMARK  141  A    between atoms: _333  and  _334
REMARK  142  A    between atoms: _333  and  _336
REMARK  143  A    between atoms: _336  and  _337
REMARK  144  A    between atoms: _340  and  _342
REMARK  145  A    between atoms: _342  and  _343
REMARK  146  A    between atoms: _342  and  _345
REMARK  147  A    between atoms: _345  and  _346
REMARK  148  A    between atoms: _346  and  _347
REMARK  149  A    between atoms: _349  and  _351
REMARK  150  A    between atoms: _351  and  _352
REMARK  151  A    between atoms: _351  and  _354
REMARK  152  A    between atoms: _354  and  _355
REMARK  153  A    between atoms: _355  and  _356
REMARK  154  A    between atoms: _359  and  _361
REMARK  155  A    between atoms: _361  and  _362
REMARK  156  A    between atoms: _361  and  _364
REMARK  157  A    between atoms: _364  and  _365
REMARK  158  A    between atoms: _368  and  _370
REMARK  159  A    between atoms: _370  and  _371
REMARK  160  A    between atoms: _370  and  _373
REMARK  161  A    between atoms: _375  and  _377
REMARK  162  A    between atoms: _377  and  _378
REMARK  163  A    between atoms: _377  and  _380
REMARK  164  A    between atoms: _380  and  _381
REMARK  165  A    between atoms: _384  and  _386
REMARK  166  A    between atoms: _386  and  _387
REMARK  167  A    between atoms: _386  and  _389
REMARK  168  A    between atoms: _389  and  _390
REMARK  169  A    between atoms: _393  and  _395
REMARK  170  A    between atoms: _395  and  _396
REMARK  171  A    between atoms: _398  and  _400
REMARK  172  A    between atoms: _400  and  _401
REMARK  173  A    between atoms: _400  and  _403
REMARK  174  A    between atoms: _403  and  _404
REMARK  175  A    between atoms: _404  and  _405
REMARK  176  A    between atoms: _408  and  _410
REMARK  177  A    between atoms: _410  and  _411
REMARK  178  A    between atoms: _414  and  _416
REMARK  179  A    between atoms: _416  and  _417
REMARK  180  A    between atoms: _416  and  _419
REMARK  181  A    between atoms: _419  and  _420
REMARK  182  A    between atoms: _423  and  _425
REMARK  183  A    between atoms: _425  and  _426
REMARK  184  A    between atoms: _425  and  _428
REMARK  185  A    between atoms: _428  and  _429
REMARK  186  A    between atoms: _434  and  _435
REMARK  187  A    between atoms: _437  and  _439
REMARK  188  A    between atoms: _439  and  _440
REMARK  189  A    between atoms: _439  and  _442
REMARK  190  A    between atoms: _442  and  _443
REMARK  191  A    between atoms: _446  and  _448
REMARK  192  A    between atoms: _448  and  _449
REMARK  193  A    between atoms: _448  and  _451
REMARK  194  A    between atoms: _451  and  _452
REMARK  195  A    between atoms: _458  and  _460
REMARK  196  A    between atoms: _460  and  _461
REMARK  197  A    between atoms: _460  and  _463
REMARK  198  A    between atoms: _466  and  _468
REMARK  199  A    between atoms: _468  and  _469
REMARK  200  A    between atoms: _468  and  _471
REMARK  201  A    between atoms: _471  and  _472
REMARK  202  A    between atoms: _477  and  _479
REMARK  203  A    between atoms: _479  and  _480
REMARK  204  A    between atoms: _479  and  _482
REMARK  205  A    between atoms: _482  and  _483
REMARK  206  A    between atoms: _483  and  _484
REMARK  207  A    between atoms: _484  and  _485
REMARK  208  A    between atoms: _494  and  _496
REMARK  209  A    between atoms: _496  and  _497
REMARK  210  A    between atoms: _496  and  _499
REMARK  211  A    between atoms: _499  and  _500
REMARK  212  A    between atoms: _503  and  _505
REMARK  213  A    between atoms: _505  and  _506
REMARK  214  A    between atoms: _505  and  _508
REMARK  215  A    between atoms: _508  and  _509
REMARK  216  A    between atoms: _514  and  _516
REMARK  217  A    between atoms: _516  and  _517
REMARK  218  A    between atoms: _516  and  _519
REMARK  219  A    between atoms: _519  and  _520
REMARK  220  A    between atoms: _523  and  _525
REMARK  221  A    between atoms: _525  and  _526
REMARK  222  A    between atoms: _525  and  _528
REMARK  223  A    between atoms: _531  and  _533
REMARK  224  A    between atoms: _533  and  _534
REMARK  225  A    between atoms: _533  and  _536
REMARK  226  A    between atoms: _536  and  _537
REMARK  227  A    between atoms: _539  and  _541
REMARK  228  A    between atoms: _541  and  _542
REMARK  229  A    between atoms: _541  and  _544
REMARK  230  A    between atoms: _544  and  _545
REMARK  231  A    between atoms: _545  and  _546
REMARK  232  A    between atoms: _546  and  _547
REMARK  233  A    between atoms: _547  and  _548
REMARK  234  A    between atoms: _552  and  _554
REMARK  235  A    between atoms: _554  and  _555
REMARK  236  A    between atoms: _554  and  _557
REMARK  237  A    between atoms: _557  and  _558
REMARK  238  A    between atoms: _561  and  _563
REMARK  239  A    between atoms: _563  and  _564
REMARK  240  A    between atoms: _566  and  _568
REMARK  241  A    between atoms: _568  and  _569
REMARK  242  A    between atoms: _568  and  _571
REMARK  243  A    between atoms: _571  and  _572
REMARK  244  A    between atoms: _575  and  _577
REMARK  245  A    between atoms: _577  and  _578
REMARK  246  A    between atoms: _577  and  _580
REMARK  247  A    between atoms: _580  and  _581
REMARK  248  A    between atoms: _587  and  _589
REMARK  249  A    between atoms: _589  and  _590
REMARK                            x       y       z     vdW  Elec       q    Type
REMARK                         _______ _______ _______ _____ _____    ______ ____
ROOT
ATOM      1  CB  ASN A   1      -3.730 -14.924  17.765  0.00  0.00    +0.110 C 
ENDROOT
BRANCH   1   2
ATOM      2  CG  ASN A   1      -2.915 -15.348  18.973  0.00  0.00    +0.221 C 
ATOM      3  OD1 ASN A   1      -2.503 -14.533  19.796  0.00  0.00    -0.275 OA
ATOM      4  ND2 ASN A   1      -2.650 -16.634  19.104  0.00  0.00    -0.329 N 
ATOM      5 HD21 ASN A   1      -2.086 -16.969  19.911  0.00  0.00    +0.145 HD
ATOM      6 HD22 ASN A   1      -3.005 -17.312  18.400  0.00  0.00    +0.145 HD
ENDBRANCH   1   2
BRANCH   1   7
ATOM      7  CA  ASN A   1      -4.635 -13.723  18.043  0.00  0.00    +0.142 C 
BRANCH   7   8
ATOM      8  N   ASN A   1      -5.876 -14.118  18.738  0.00  0.00    -0.239 NA
ATOM      9  H   ASN A   1      -6.434 -14.904  18.349  0.00  0.00    +0.142 HD
ENDBRANCH   7   8
BRANCH   7  10
ATOM     10  C   ASN A   1      -4.917 -12.894  16.784  0.00  0.00    +0.225 C 
ATOM     11  O   ASN A   1      -4.041 -12.671  15.964  0.00  0.00    -0.287 OA
ENDBRANCH   7  10
ENDBRANCH   1   7
TORSDOF 4
REMARK  Name = ../refined-set-2016/4kao/4kao_pocket.pdb
REMARK  249 active torsions:
REMARK  status: ('A' for Active; 'I' for Inactive)
REMARK    1  A    between atoms: _1  and  _3
REMARK    2  A    between atoms: _3  and  _4
REMARK    3  A    between atoms: _3  and  _6
REMARK    4  A    between atoms: _6  and  _7
REMARK    5  A    between atoms: _10  and  _12
REMARK    6  A    between atoms: _12  and  _13
REMARK    7  A    between atoms: _15  and  _17
REMARK    8  A    between atoms: _17  and  _18
REMARK    9  A    between atoms: _17  and  _20
REMARK   10  A    between atoms: _20  and  _21
REMARK   11  A    between atoms: _21  and  _22
REMARK   12  A    between atoms: _27  and  _29
REMARK   13  A    between atoms: _29  and  _30
REMARK   14  A    between atoms: _29  and  _32
REMARK   15  A    between atoms: _32  and  _33
REMARK   16  A    between atoms: _39  and  _41
REMARK   17  A    between atoms: _41  and  _42
REMARK   18  A    between atoms: _41  and  _44
REMARK   19  A    between atoms: _47  and  _49
REMARK   20  A    between atoms: _49  and  _50
REMARK   21  A    between atoms: _49  and  _52
REMARK   22  A    between atoms: _52  and  _53
REMARK   23  A    between atoms: _58  and  _60
REMARK   24  A    between atoms: _60  and  _61
REMARK   25  A    between atoms: _60  and  _63
REMARK   26  A    between atoms: _63  and  _64
REMARK   27  A    between atoms: _64  and  _65
REMARK   28  A    between atoms: _70  and  _72
REMARK   29  A    between atoms: _72  and  _73
REMARK   30  A    between atoms: _76  and  _78
REMARK   31  A    between atoms: _78  and  _79
REMARK   32  A    between atoms: _78  and  _81
REMARK   33  A    between atoms: _84  and  _86
REMARK   34  A    between atoms: _86  and  _87
REMARK   35  A    between atoms: _90  and  _92
REMARK   36  A    between atoms: _92  and  _93
REMARK   37  A    between atoms: _92  and  _95
REMARK   38  A    between atoms: _95  and  _96
REMARK   39  A    between atoms: _99  and  _101
REMARK   40  A    between atoms: _101  and  _102
REMARK   41  A    between atoms: _101  and  _104
REMARK   42  A    between atoms: _104  and  _105
REMARK   43  A    between atoms: _105  and  _106
REMARK   44  A    between atoms: _106  and  _107
REMARK   45  A    between atoms: _107  and  _108
REMARK   46  A    between atoms: _112  and  _114
REMARK   47  A    between atoms: _114  and  _115
REMARK   48  A    between atoms: _114  and  _117
REMARK   49  A    between atoms: _117  and  _118
REMARK   50  A    between atoms: _118  and  _119
REMARK   51  A    between atoms: _122  and  _124
REMARK   52  A    between atoms: _124  and  _125
REMARK   53  A    between atoms: _124  and  _127
REMARK   54  A    between atoms: _127  and  _128
REMARK   55  A    between atoms: _128  and  _129
REMARK   56  A    between atoms: _129  and  _130
REMARK   57  A    between atoms: _130  and  _131
REMARK   58  A    between atoms: _135  and  _137
REMARK   59  A    between atoms: _137  and  _138
REMARK   60  A    between atoms: _137  and  _140
REMARK   61  A    between atoms: _140  and  _141
REMARK   62  A    between atoms: _147  and  _149
REMARK   63  A    between atoms: _149  and  _150
REMARK   64  A    between atoms: _149  and  _152
REMARK   65  A    between atoms: _152  and  _153
REMARK   66  A    between atoms: _156  and  _158
REMARK   67  A    between atoms: _158  and  _159
REMARK   68  A    between atoms: _158  and  _161
REMARK   69  A    between atoms: _161  and  _162
REMARK   70  A    between atoms: _162  and  _163
REMARK   71  A    between atoms: _168  and  _170
REMARK   72  A    between atoms: _170  and  _171
REMARK   73  A    between atoms: _170  and  _173
REMARK   74  A    between atoms: _173  and  _174
REMARK   75  A    between atoms: _174  and  _175
REMARK   76  A    between atoms: _178  and  _180
REMARK   77  A    between atoms: _180  and  _181
REMARK   78  A    between atoms: _184  and  _186
REMARK   79  A    between atoms: _186  and  _187
REMARK   80  A    between atoms: _186  and  _189
REMARK   81  A    between atoms: _189  and  _190
REMARK   82  A    between atoms: _193  and  _195
REMARK   83  A    between atoms: _195  and  _196
REMARK   84  A    between atoms: _195  and  _198
REMARK   85  A    between atoms: _198  and  _199
REMARK   86  A    between atoms: _202  and  _204
REMARK   87  A    between atoms: _204  and  _205
REMARK   88  A    between atoms: _204  and  _207
REMARK   89  A    between atoms: _207  and  _208
REMARK   90  A    between atoms: _208  and  _209
REMARK   91  A    between atoms: _211  and  _213
REMARK   92  A    between atoms: _213  and  _214
REMARK   93  A    between atoms: _213  and  _216
REMARK   94  A    between atoms: _216  and  _217
REMARK   95  A    between atoms: _217  and  _218
REMARK   96  A    between atoms: _218  and  _219
REMARK   97  A    between atoms: _228  and  _230
REMARK   98  A    between atoms: _230  and  _231
REMARK   99  A    between atoms: _230  and  _233
REMARK  100  A    between atoms: _233  and  _234
REMARK  101  A    between atoms: _234  and  _235
REMARK  102  A    between atoms: _240  and  _242
REMARK  103  A    between atoms: _242  and  _243
REMARK  104  A    between atoms: _242  and  _245
REMARK  105  A    between atoms: _245  and  _246
REMARK  106  A    between atoms: _252  and  _254
REMARK  107  A    between atoms: _254  and  _255
REMARK  108  A    between atoms: _254  and  _257
REMARK  109  A    between atoms: _257  and  _258
REMARK  110  A    between atoms: _261  and  _263
REMARK  111  A    between atoms: _263  and  _264
REMARK  112  A    between atoms: _263  and  _266
REMARK  113  A    between atoms: _266  and  _267
REMARK  114  A    between atoms: _272  and  _274
REMARK  115  A    between atoms: _274  and  _275
REMARK  116  A    between atoms: _274  and  _277
REMARK  117  A    between atoms: _277  and  _278
REMARK  118  A    between atoms: _283  and  _285
REMARK  119  A    between atoms: _285  and  _286
REMARK  120  A    between atoms: _285  and  _288
REMARK  121  A    between atoms: _288  and  _289
REMARK  122  A    between atoms: _292  and  _294
REMARK  123  A    between atoms: _294  and  _295
REMARK  124  A    between atoms: _294  and  _297
REMARK  125  A    between atoms: _300  and  _302
REMARK  126  A    between atoms: _302  and  _303
REMARK  127  A    between atoms: _302  and  _305
REMARK  128  A    between atoms: _305  and  _306
REMARK  129  A    between atoms: _306  and  _307
REMARK  130  A    between atoms: _307  and  _308
REMARK  131  A    between atoms: _308  and  _309
REMARK  132  A    between atoms: _313  and  _315
REMARK  133  A    between atoms: _315  and  _316
REMARK  134  A    between atoms: _315  and  _318
REMARK  135  A    between atoms: _318  and  _319
REMARK  136  A    between atoms: _322  and  _324
REMARK  137  A    between atoms: _324  and  _325
REMARK  138  A    between atoms: _324  and  _327
REMARK  139  A    between atoms: _327  and  _328
REMARK  140  A    between atoms: _331  and  _333
REMARK  141  A    between atoms: _333  and  _334
REMARK  142  A    between atoms: _333  and  _336
REMARK  143  A    between atoms: _336  and  _337
REMARK  144  A    between atoms: _340  and  _342
REMARK  145  A    between atoms: _342  and  _343
REMARK  146  A    between atoms: _342  and  _345
REMARK  147  A    between atoms: _345  and  _346
REMARK  148  A    between atoms: _346  and  _347
REMARK  149  A    between atoms: _349  and  _351
REMARK  150  A    between atoms: _351  and  _352
REMARK  151  A    between atoms: _351  and  _354
REMARK  152  A    between atoms: _354  and  _355
REMARK  153  A    between atoms: _355  and  _356
REMARK  154  A    between atoms: _359  and  _361
REMARK  155  A    between atoms: _361  and  _362
REMARK  156  A    between atoms: _361  and  _364
REMARK  157  A    between atoms: _364  and  _365
REMARK  158  A    between atoms: _368  and  _370
REMARK  159  A    between atoms: _370  and  _371
REMARK  160  A    between atoms: _370  and  _373
REMARK  161  A    between atoms: _375  and  _377
REMARK  162  A    between atoms: _377  and  _378
REMARK  163  A    between atoms: _377  and  _380
REMARK  164  A    between atoms: _380  and  _381
REMARK  165  A    between atoms: _384  and  _386
REMARK  166  A    between atoms: _386  and  _387
REMARK  167  A    between atoms: _386  and  _389
REMARK  168  A    between atoms: _389  and  _390
REMARK  169  A    between atoms: _393  and  _395
REMARK  170  A    between atoms: _395  and  _396
REMARK  171  A    between atoms: _398  and  _400
REMARK  172  A    between atoms: _400  and  _401
REMARK  173  A    between atoms: _400  and  _403
REMARK  174  A    between atoms: _403  and  _404
REMARK  175  A    between atoms: _404  and  _405
REMARK  176  A    between atoms: _408  and  _410
REMARK  177  A    between atoms: _410  and  _411
REMARK  178  A    between atoms: _414  and  _416
REMARK  179  A    between atoms: _416  and  _417
REMARK  180  A    between atoms: _416  and  _419
REMARK  181  A    between atoms: _419  and  _420
REMARK  182  A    between atoms: _423  and  _425
REMARK  183  A    between atoms: _425  and  _426
REMARK  184  A    between atoms: _425  and  _428
REMARK  185  A    between atoms: _428  and  _429
REMARK  186  A    between atoms: _434  and  _435
REMARK  187  A    between atoms: _437  and  _439
REMARK  188  A    between atoms: _439  and  _440
REMARK  189  A    between atoms: _439  and  _442
REMARK  190  A    between atoms: _442  and  _443
REMARK  191  A    between atoms: _446  and  _448
REMARK  192  A    between atoms: _448  and  _449
REMARK  193  A    between atoms: _448  and  _451
REMARK  194  A    between atoms: _451  and  _452
REMARK  195  A    between atoms: _458  and  _460
REMARK  196  A    between atoms: _460  and  _461
REMARK  197  A    between atoms: _460  and  _463
REMARK  198  A    between atoms: _466  and  _468
REMARK  199  A    between atoms: _468  and  _469
REMARK  200  A    between atoms: _468  and  _471
REMARK  201  A    between atoms: _471  and  _472
REMARK  202  A    between atoms: _477  and  _479
REMARK  203  A    between atoms: _479  and  _480
REMARK  204  A    between atoms: _479  and  _482
REMARK  205  A    between atoms: _482  and  _483
REMARK  206  A    between atoms: _483  and  _484
REMARK  207  A    between atoms: _484  and  _485
REMARK  208  A    between atoms: _494  and  _496
REMARK  209  A    between atoms: _496  and  _497
REMARK  210  A    between atoms: _496  and  _499
REMARK  211  A    between atoms: _499  and  _500
REMARK  212  A    between atoms: _503  and  _505
REMARK  213  A    between atoms: _505  and  _506
REMARK  214  A    between atoms: _505  and  _508
REMARK  215  A    between atoms: _508  and  _509
REMARK  216  A    between atoms: _514  and  _516
REMARK  217  A    between atoms: _516  and  _517
REMARK  218  A    between atoms: _516  and  _519
REMARK  219  A    between atoms: _519  and  _520
REMARK  220  A    between atoms: _523  and  _525
REMARK  221  A    between atoms: _525  and  _526
REMARK  222  A    between atoms: _525  and  _528
REMARK  223  A    between atoms: _531  and  _533
REMARK  224  A    between atoms: _533  and  _534
REMARK  225  A    between atoms: _533  and  _536
REMARK  226  A    between atoms: _536  and  _537
REMARK  227  A    between atoms: _539  and  _541
REMARK  228  A    between atoms: _541  and  _542
REMARK  229  A    between atoms: _541  and  _544
REMARK  230  A    between atoms: _544  and  _545
REMARK  231  A    between atoms: _545  and  _546
REMARK  232  A    between atoms: _546  and  _547
REMARK  233  A    between atoms: _547  and  _548
REMARK  234  A    between atoms: _552  and  _554
REMARK  235  A    between atoms: _554  and  _555
REMARK  236  A    between atoms: _554  and  _557
REMARK  237  A    between atoms: _557  and  _558
REMARK  238  A    between atoms: _561  and  _563
REMARK  239  A    between atoms: _563  and  _564
REMARK  240  A    between atoms: _566  and  _568
REMARK  241  A    between atoms: _568  and  _569
REMARK  242  A    between atoms: _568  and  _571
REMARK  243  A    between atoms: _571  and  _572
REMARK  244  A    between atoms: _575  and  _577
REMARK  245  A    between atoms: _577  and  _578
REMARK  246  A    between atoms: _577  and  _580
REMARK  247  A    between atoms: _580  and  _581
REMARK  248  A    between atoms: _587  and  _589
REMARK  249  A    between atoms: _589  and  _590
REMARK                            x       y       z     vdW  Elec       q    Type
REMARK                         _______ _______ _______ _____ _____    ______ ____
ROOT
ATOM      1  CA  VAL A   2      -9.211  -5.461  13.736  0.00  0.00    +0.148 C 
ENDROOT
BRANCH   1   3
ATOM      2  C   LEU A   1      -7.587  -7.198  14.391  0.00  0.00    +0.238 C 
ATOM      3  N   VAL A   2      -8.314  -6.124  14.668  0.00  0.00    -0.297 N 
ATOM      4  H   VAL A   2      -8.236  -5.726  15.626  0.00  0.00    +0.150 HD
ATOM      5  O   LEU A   1      -7.586  -7.730  13.291  0.00  0.00    -0.274 OA
BRANCH   2   6
ATOM      6  CA  LEU A   1      -6.744  -7.761  15.524  0.00  0.00    +0.145 C 
BRANCH   6   7
ATOM      7  N   LEU A   1      -6.472  -9.165  15.272  0.00  0.00    -0.238 NA
ATOM      8  H   LEU A   1      -5.881  -9.405  14.451  0.00  0.00    +0.142 HD
ENDBRANCH   6   7
BRANCH   6   9
ATOM      9  CB  LEU A   1      -5.450  -6.954  15.693  0.00  0.00    +0.026 C 
BRANCH   9  10
ATOM     10  CG  LEU A   1      -4.553  -7.302  16.909  0.00  0.00    +0.002 C 
ATOM     11  CD2 LEU A   1      -5.171  -6.923  18.223  0.00  0.00    +0.000 C 
ATOM     12  CD1 LEU A   1      -3.207  -6.651  16.785  0.00  0.00    +0.000 C 
ENDBRANCH   9  10
ENDBRANCH   6   9
ENDBRANCH   2   6
ENDBRANCH   1   3
BRANCH   1  13
ATOM     13  C   VAL A   2      -8.607  -4.094  13.355  0.00  0.00    +0.241 C 
ATOM     14  O   VAL A   2      -8.516  -3.207  14.203  0.00  0.00    -0.273 OA
ATOM     15  N   SER A   3      -8.168  -3.952  12.092  0.00  0.00    -0.296 N 
ATOM     16  H   SER A   3      -8.230  -4.776  11.460  0.00  0.00    +0.150 HD
BRANCH  15  17
ATOM     17  CA  SER A   3      -7.607  -2.711  11.548  0.00  0.00    +0.166 C 
BRANCH  17  18
ATOM     18  CB  SER A   3      -8.727  -1.707  11.262  0.00  0.00    +0.229 C 
ATOM     19  OG  SER A   3      -8.602  -0.524  11.574  0.00  0.00    -0.286 OA
ENDBRANCH  17  18
BRANCH  17  20
ATOM     20  C   SER A   3      -6.811  -2.990  10.278  0.00  0.00    +0.165 C 
BRANCH  20  21
ATOM     21  O   SER A   3      -5.508  -2.449  10.391  0.00  0.00    -0.380 OA
ATOM     22  H   SER A   3      -5.001  -2.636   9.561  0.00  0.00    +0.211 HD
ENDBRANCH  20  21
ENDBRANCH  17  20
ENDBRANCH  15  17
ENDBRANCH   1  13
BRANCH   1  23
ATOM     23  CB  VAL A   2     -10.637  -5.335  14.364  0.00  0.00    +0.027 C 
ATOM     24  CG2 VAL A   2     -11.090  -6.643  15.008  0.00  0.00    +0.002 C 
ATOM     25  CG1 VAL A   2     -11.658  -4.869  13.337  0.00  0.00    +0.002 C 
ENDBRANCH   1  23
TORSDOF 11
REMARK  Name = ../refined-set-2016/4kao/4kao_pocket.pdb
REMARK  249 active torsions:
REMARK  status: ('A' for Active; 'I' for Inactive)
REMARK    1  A    between atoms: _1  and  _3
REMARK    2  A    between atoms: _3  and  _4
REMARK    3  A    between atoms: _3  and  _6
REMARK    4  A    between atoms: _6  and  _7
REMARK    5  A    between atoms: _10  and  _12
REMARK    6  A    between atoms: _12  and  _13
REMARK    7  A    between atoms: _15  and  _17
REMARK    8  A    between atoms: _17  and  _18
REMARK    9  A    between atoms: _17  and  _20
REMARK   10  A    between atoms: _20  and  _21
REMARK   11  A    between atoms: _21  and  _22
REMARK   12  A    between atoms: _27  and  _29
REMARK   13  A    between atoms: _29  and  _30
REMARK   14  A    between atoms: _29  and  _32
REMARK   15  A    between atoms: _32  and  _33
REMARK   16  A    between atoms: _39  and  _41
REMARK   17  A    between atoms: _41  and  _42
REMARK   18  A    between atoms: _41  and  _44
REMARK   19  A    between atoms: _47  and  _49
REMARK   20  A    between atoms: _49  and  _50
REMARK   21  A    between atoms: _49  and  _52
REMARK   22  A    between atoms: _52  and  _53
REMARK   23  A    between atoms: _58  and  _60
REMARK   24  A    between atoms: _60  and  _61
REMARK   25  A    between atoms: _60  and  _63
REMARK   26  A    between atoms: _63  and  _64
REMARK   27  A    between atoms: _64  and  _65
REMARK   28  A    between atoms: _70  and  _72
REMARK   29  A    between atoms: _72  and  _73
REMARK   30  A    between atoms: _76  and  _78
REMARK   31  A    between atoms: _78  and  _79
REMARK   32  A    between atoms: _78  and  _81
REMARK   33  A    between atoms: _84  and  _86
REMARK   34  A    between atoms: _86  and  _87
REMARK   35  A    between atoms: _90  and  _92
REMARK   36  A    between atoms: _92  and  _93
REMARK   37  A    between atoms: _92  and  _95
REMARK   38  A    between atoms: _95  and  _96
REMARK   39  A    between atoms: _99  and  _101
REMARK   40  A    between atoms: _101  and  _102
REMARK   41  A    between atoms: _101  and  _104
REMARK   42  A    between atoms: _104  and  _105
REMARK   43  A    between atoms: _105  and  _106
REMARK   44  A    between atoms: _106  and  _107
REMARK   45  A    between atoms: _107  and  _108
REMARK   46  A    between atoms: _112  and  _114
REMARK   47  A    between atoms: _114  and  _115
REMARK   48  A    between atoms: _114  and  _117
REMARK   49  A    between atoms: _117  and  _118
REMARK   50  A    between atoms: _118  and  _119
REMARK   51  A    between atoms: _122  and  _124
REMARK   52  A    between atoms: _124  and  _125
REMARK   53  A    between atoms: _124  and  _127
REMARK   54  A    between atoms: _127  and  _128
REMARK   55  A    between atoms: _128  and  _129
REMARK   56  A    between atoms: _129  and  _130
REMARK   57  A    between atoms: _130  and  _131
REMARK   58  A    between atoms: _135  and  _137
REMARK   59  A    between atoms: _137  and  _138
REMARK   60  A    between atoms: _137  and  _140
REMARK   61  A    between atoms: _140  and  _141
REMARK   62  A    between atoms: _147  and  _149
REMARK   63  A    between atoms: _149  and  _150
REMARK   64  A    between atoms: _149  and  _152
REMARK   65  A    between atoms: _152  and  _153
REMARK   66  A    between atoms: _156  and  _158
REMARK   67  A    between atoms: _158  and  _159
REMARK   68  A    between atoms: _158  and  _161
REMARK   69  A    between atoms: _161  and  _162
REMARK   70  A    between atoms: _162  and  _163
REMARK   71  A    between atoms: _168  and  _170
REMARK   72  A    between atoms: _170  and  _171
REMARK   73  A    between atoms: _170  and  _173
REMARK   74  A    between atoms: _173  and  _174
REMARK   75  A    between atoms: _174  and  _175
REMARK   76  A    between atoms: _178  and  _180
REMARK   77  A    between atoms: _180  and  _181
REMARK   78  A    between atoms: _184  and  _186
REMARK   79  A    between atoms: _186  and  _187
REMARK   80  A    between atoms: _186  and  _189
REMARK   81  A    between atoms: _189  and  _190
REMARK   82  A    between atoms: _193  and  _195
REMARK   83  A    between atoms: _195  and  _196
REMARK   84  A    between atoms: _195  and  _198
REMARK   85  A    between atoms: _198  and  _199
REMARK   86  A    between atoms: _202  and  _204
REMARK   87  A    between atoms: _204  and  _205
REMARK   88  A    between atoms: _204  and  _207
REMARK   89  A    between atoms: _207  and  _208
REMARK   90  A    between atoms: _208  and  _209
REMARK   91  A    between atoms: _211  and  _213
REMARK   92  A    between atoms: _213  and  _214
REMARK   93  A    between atoms: _213  and  _216
REMARK   94  A    between atoms: _216  and  _217
REMARK   95  A    between atoms: _217  and  _218
REMARK   96  A    between atoms: _218  and  _219
REMARK   97  A    between atoms: _228  and  _230
REMARK   98  A    between atoms: _230  and  _231
REMARK   99  A    between atoms: _230  and  _233
REMARK  100  A    between atoms: _233  and  _234
REMARK  101  A    between atoms: _234  and  _235
REMARK  102  A    between atoms: _240  and  _242
REMARK  103  A    between atoms: _242  and  _243
REMARK  104  A    between atoms: _242  and  _245
REMARK  105  A    between atoms: _245  and  _246
REMARK  106  A    between atoms: _252  and  _254
REMARK  107  A    between atoms: _254  and  _255
REMARK  108  A    between atoms: _254  and  _257
REMARK  109  A    between atoms: _257  and  _258
REMARK  110  A    between atoms: _261  and  _263
REMARK  111  A    between atoms: _263  and  _264
REMARK  112  A    between atoms: _263  and  _266
REMARK  113  A    between atoms: _266  and  _267
REMARK  114  A    between atoms: _272  and  _274
REMARK  115  A    between atoms: _274  and  _275
REMARK  116  A    between atoms: _274  and  _277
REMARK  117  A    between atoms: _277  and  _278
REMARK  118  A    between atoms: _283  and  _285
REMARK  119  A    between atoms: _285  and  _286
REMARK  120  A    between atoms: _285  and  _288
REMARK  121  A    between atoms: _288  and  _289
REMARK  122  A    between atoms: _292  and  _294
REMARK  123  A    between atoms: _294  and  _295
REMARK  124  A    between atoms: _294  and  _297
REMARK  125  A    between atoms: _300  and  _302
REMARK  126  A    between atoms: _302  and  _303
REMARK  127  A    between atoms: _302  and  _305
REMARK  128  A    between atoms: _305  and  _306
REMARK  129  A    between atoms: _306  and  _307
REMARK  130  A    between atoms: _307  and  _308
REMARK  131  A    between atoms: _308  and  _309
REMARK  132  A    between atoms: _313  and  _315
REMARK  133  A    between atoms: _315  and  _316
REMARK  134  A    between atoms: _315  and  _318
REMARK  135  A    between atoms: _318  and  _319
REMARK  136  A    between atoms: _322  and  _324
REMARK  137  A    between atoms: _324  and  _325
REMARK  138  A    between atoms: _324  and  _327
REMARK  139  A    between atoms: _327  and  _328
REMARK  140  A    between atoms: _331  and  _333
REMARK  141  A    between atoms: _333  and  _334
REMARK  142  A    between atoms: _333  and  _336
REMARK  143  A    between atoms: _336  and  _337
REMARK  144  A    between atoms: _340  and  _342
REMARK  145  A    between atoms: _342  and  _343
REMARK  146  A    between atoms: _342  and  _345
REMARK  147  A    between atoms: _345  and  _346
REMARK  148  A    between atoms: _346  and  _347
REMARK  149  A    between atoms: _349  and  _351
REMARK  150  A    between atoms: _351  and  _352
REMARK  151  A    between atoms: _351  and  _354
REMARK  152  A    between atoms: _354  and  _355
REMARK  153  A    between atoms: _355  and  _356
REMARK  154  A    between atoms: _359  and  _361
REMARK  155  A    between atoms: _361  and  _362
REMARK  156  A    between atoms: _361  and  _364
REMARK  157  A    between atoms: _364  and  _365
REMARK  158  A    between atoms: _368  and  _370
REMARK  159  A    between atoms: _370  and  _371
REMARK  160  A    between atoms: _370  and  _373
REMARK  161  A    between atoms: _375  and  _377
REMARK  162  A    between atoms: _377  and  _378
REMARK  163  A    between atoms: _377  and  _380
REMARK  164  A    between atoms: _380  and  _381
REMARK  165  A    between atoms: _384  and  _386
REMARK  166  A    between atoms: _386  and  _387
REMARK  167  A    between atoms: _386  and  _389
REMARK  168  A    between atoms: _389  and  _390
REMARK  169  A    between atoms: _393  and  _395
REMARK  170  A    between atoms: _395  and  _396
REMARK  171  A    between atoms: _398  and  _400
REMARK  172  A    between atoms: _400  and  _401
REMARK  173  A    between atoms: _400  and  _403
REMARK  174  A    between atoms: _403  and  _404
REMARK  175  A    between atoms: _404  and  _405
REMARK  176  A    between atoms: _408  and  _410
REMARK  177  A    between atoms: _410  and  _411
REMARK  178  A    between atoms: _414  and  _416
REMARK  179  A    between atoms: _416  and  _417
REMARK  180  A    between atoms: _416  and  _419
REMARK  181  A    between atoms: _419  and  _420
REMARK  182  A    between atoms: _423  and  _425
REMARK  183  A    between atoms: _425  and  _426
REMARK  184  A    between atoms: _425  and  _428
REMARK  185  A    between atoms: _428  and  _429
REMARK  186  A    between atoms: _434  and  _435
REMARK  187  A    between atoms: _437  and  _439
REMARK  188  A    between atoms: _439  and  _440
REMARK  189  A    between atoms: _439  and  _442
REMARK  190  A    between atoms: _442  and  _443
REMARK  191  A    between atoms: _446  and  _448
REMARK  192  A    between atoms: _448  and  _449
REMARK  193  A    between atoms: _448  and  _451
REMARK  194  A    between atoms: _451  and  _452
REMARK  195  A    between atoms: _458  and  _460
REMARK  196  A    between atoms: _460  and  _461
REMARK  197  A    between atoms: _460  and  _463
REMARK  198  A    between atoms: _466  and  _468
REMARK  199  A    between atoms: _468  and  _469
REMARK  200  A    between atoms: _468  and  _471
REMARK  201  A    between atoms: _471  and  _472
REMARK  202  A    between atoms: _477  and  _479
REMARK  203  A    between atoms: _479  and  _480
REMARK  204  A    between atoms: _479  and  _482
REMARK  205  A    between atoms: _482  and  _483
REMARK  206  A    between atoms: _483  and  _484
REMARK  207  A    between atoms: _484  and  _485
REMARK  208  A    between atoms: _494  and  _496
REMARK  209  A    between atoms: _496  and  _497
REMARK  210  A    between atoms: _496  and  _499
REMARK  211  A    between atoms: _499  and  _500
REMARK  212  A    between atoms: _503  and  _505
REMARK  213  A    between atoms: _505  and  _506
REMARK  214  A    between atoms: _505  and  _508
REMARK  215  A    between atoms: _508  and  _509
REMARK  216  A    between atoms: _514  and  _516
REMARK  217  A    between atoms: _516  and  _517
REMARK  218  A    between atoms: _516  and  _519
REMARK  219  A    between atoms: _519  and  _520
REMARK  220  A    between atoms: _523  and  _525
REMARK  221  A    between atoms: _525  and  _526
REMARK  222  A    between atoms: _525  and  _528
REMARK  223  A    between atoms: _531  and  _533
REMARK  224  A    between atoms: _533  and  _534
REMARK  225  A    between atoms: _533  and  _536
REMARK  226  A    between atoms: _536  and  _537
REMARK  227  A    between atoms: _539  and  _541
REMARK  228  A    between atoms: _541  and  _542
REMARK  229  A    between atoms: _541  and  _544
REMARK  230  A    between atoms: _544  and  _545
REMARK  231  A    between atoms: _545  and  _546
REMARK  232  A    between atoms: _546  and  _547
REMARK  233  A    between atoms: _547  and  _548
REMARK  234  A    between atoms: _552  and  _554
REMARK  235  A    between atoms: _554  and  _555
REMARK  236  A    between atoms: _554  and  _557
REMARK  237  A    between atoms: _557  and  _558
REMARK  238  A    between atoms: _561  and  _563
REMARK  239  A    between atoms: _563  and  _564
REMARK  240  A    between atoms: _566  and  _568
REMARK  241  A    between atoms: _568  and  _569
REMARK  242  A    between atoms: _568  and  _571
REMARK  243  A    between atoms: _571  and  _572
REMARK  244  A    between atoms: _575  and  _577
REMARK  245  A    between atoms: _577  and  _578
REMARK  246  A    between atoms: _577  and  _580
REMARK  247  A    between atoms: _580  and  _581
REMARK  248  A    between atoms: _587  and  _589
REMARK  249  A    between atoms: _589  and  _590
REMARK                            x       y       z     vdW  Elec       q    Type
REMARK                         _______ _______ _______ _____ _____    ______ ____
ROOT
ATOM      1  C   GLY A   3      -0.596 -13.059  15.741  0.00  0.00    +0.243 C 
ATOM      2  N   ASP A   4       0.185 -12.873  16.791  0.00  0.00    -0.296 N 
ATOM      3  H   ASP A   4       0.600 -11.927  16.911  0.00  0.00    +0.150 HD
ATOM      4  O   GLY A   3      -1.084 -14.157  15.458  0.00  0.00    -0.273 OA
ENDROOT
BRANCH   2   5
ATOM      5  CA  ASP A   4       0.518 -13.883  17.802  0.00  0.00    +0.160 C 
BRANCH   5   6
ATOM      6  C   ASP A   4       0.890 -13.110  19.078  0.00  0.00    +0.241 C 
ATOM      7  N   PHE A   5      -0.025 -13.090  20.064  0.00  0.00    -0.297 N 
ATOM      8  H   PHE A   5      -0.920 -13.602  19.928  0.00  0.00    +0.150 HD
ATOM      9  O   ASP A   4       1.952 -12.490  19.142  0.00  0.00    -0.273 OA
BRANCH   7  10
ATOM     10  CA  PHE A   5       0.195 -12.368  21.331  0.00  0.00    +0.153 C 
BRANCH  10  11
ATOM     11  C   PHE A   5       0.472 -13.321  22.512  0.00  0.00    +0.241 C 
ATOM     12  O   PHE A   5       0.438 -12.898  23.668  0.00  0.00    -0.273 OA
ATOM     13  N   GLY A   6       0.724 -14.596  22.198  0.00  0.00    -0.296 N 
ATOM     14  H   GLY A   6       0.716 -14.863  21.193  0.00  0.00    +0.150 HD
BRANCH  13  15
ATOM     15  CA  GLY A   6       1.009 -15.635  23.182  0.00  0.00    +0.163 C 
BRANCH  15  16
ATOM     16  C   GLY A   6       2.399 -16.214  23.047  0.00  0.00    +0.229 C 
ATOM     17  O   GLY A   6       2.698 -17.246  23.645  0.00  0.00    -0.286 OA
ENDBRANCH  15  16
ENDBRANCH  13  15
ENDBRANCH  10  11
BRANCH  10  18
ATOM     18  CB  PHE A   5      -0.970 -11.383  21.620  0.00  0.00    +0.055 C 
BRANCH  18  19
ATOM     19  CG  PHE A   5      -1.508 -10.771  20.358  0.00  0.00    -0.020 A 
ATOM     20  CD2 PHE A   5      -2.798 -11.053  19.926  0.00  0.00    -0.004 A 
ATOM     21  CE2 PHE A   5      -3.271 -10.534  18.723  0.00  0.00    -0.000 A 
ATOM     22  CZ  PHE A   5      -2.427  -9.814  17.907  0.00  0.00    -0.000 A 
ATOM     23  CE1 PHE A   5      -1.150  -9.519  18.315  0.00  0.00    -0.000 A 
ATOM     24  CD1 PHE A   5      -0.690  -9.991  19.541  0.00  0.00    -0.004 A 
ENDBRANCH  18  19
ENDBRANCH  10  18
ENDBRANCH   7  10
ENDBRANCH   5   6
BRANCH   5  25
ATOM     25  CB  ASP A   4       1.667 -14.828  17.338  0.00  0.00    +0.143 C 
BRANCH  25  26
ATOM     26  CG  ASP A   4       1.984 -16.014  18.267  0.00  0.00    +0.367 C 
ATOM     27  OD2 ASP A   4       1.350 -16.126  19.334  0.00  0.00    -0.246 OA
ATOM     28  OD1 ASP A   4       2.884 -16.811  17.930  0.00  0.00    -0.246 OA
ENDBRANCH  25  26
ENDBRANCH   5  25
ENDBRANCH   2   5
BRANCH   1  29
ATOM     29  CA  GLY A   3      -0.852 -11.845  14.860  0.00  0.00    +0.176 C 
BRANCH  29  31
ATOM     30  C   LEU A   2      -2.077 -11.797  12.732  0.00  0.00    +0.241 C 
ATOM     31  N   GLY A   3      -2.009 -12.070  14.016  0.00  0.00    -0.295 N 
ATOM     32  H   GLY A   3      -2.854 -12.481  14.463  0.00  0.00    +0.150 HD
ATOM     33  O   LEU A   2      -1.199 -11.204  12.112  0.00  0.00    -0.273 OA
BRANCH  30  34
ATOM     34  CA  LEU A   2      -3.380 -12.213  12.060  0.00  0.00    +0.149 C 
BRANCH  34  37
ATOM     35  C   LYS A   1      -4.652 -10.133  11.751  0.00  0.00    +0.238 C 
ATOM     36  O   LYS A   1      -4.995 -10.065  12.938  0.00  0.00    -0.274 OA
ATOM     37  N   LEU A   2      -3.882 -11.117  11.258  0.00  0.00    -0.297 N 
ATOM     38  H   LEU A   2      -3.634 -11.090  10.248  0.00  0.00    +0.150 HD
BRANCH  35  39
ATOM     39  CA  LYS A   1      -5.001  -9.038  10.776  0.00  0.00    +0.145 C 
BRANCH  39  40
ATOM     40  N   LYS A   1      -6.409  -8.662  10.908  0.00  0.00    -0.238 NA
ATOM     41  H   LYS A   1      -6.783  -8.506  11.866  0.00  0.00    +0.142 HD
ENDBRANCH  39  40
BRANCH  39  42
ATOM     42  CB  LYS A   1      -4.069  -7.842  11.048  0.00  0.00    +0.026 C 
BRANCH  42  43
ATOM     43  CG  LYS A   1      -4.421  -6.537  10.355  0.00  0.00    -0.000 C 
BRANCH  43  44
ATOM     44  CD  LYS A   1      -3.510  -6.237   9.210  0.00  0.00    -0.024 C 
BRANCH  44  45
ATOM     45  CE  LYS A   1      -3.926  -4.931   8.569  0.00  0.00    -0.086 C 
BRANCH  45  46
ATOM     46  NZ  LYS A   1      -3.011  -4.557   7.467  0.00  0.00    +0.380 N 
ATOM     47  HZ1 LYS A   1      -2.046  -4.450   7.840  0.00  0.00    -0.089 HD
ATOM     48  HZ2 LYS A   1      -3.324  -3.658   7.049  0.00  0.00    -0.089 HD
ATOM     49  HZ3 LYS A   1      -3.023  -5.301   6.741  0.00  0.00    -0.089 HD
ENDBRANCH  45  46
ENDBRANCH  44  45
ENDBRANCH  43  44
ENDBRANCH  42  43
ENDBRANCH  39  42
ENDBRANCH  35  39
ENDBRANCH  34  37
BRANCH  34  50
ATOM     50  CB  LEU A   2      -3.166 -13.464  11.189  0.00  0.00    +0.029 C 
BRANCH  50  51
ATOM     51  CG  LEU A   2      -2.652 -14.725  11.890  0.00  0.00    +0.002 C 
ATOM     52  CD2 LEU A   2      -3.689 -15.287  12.917  0.00  0.00    +0.000 C 
ATOM     53  CD1 LEU A   2      -2.232 -15.755  10.875  0.00  0.00    +0.000 C 
ENDBRANCH  50  51
ENDBRANCH  34  50
ENDBRANCH  30  34
ENDBRANCH  29  31
ENDBRANCH   1  29
TORSDOF 23
REMARK  Name = ../refined-set-2016/4kao/4kao_pocket.pdb
REMARK  249 active torsions:
REMARK  status: ('A' for Active; 'I' for Inactive)
REMARK    1  A    between atoms: _1  and  _3
REMARK    2  A    between atoms: _3  and  _4
REMARK    3  A    between atoms: _3  and  _6
REMARK    4  A    between atoms: _6  and  _7
REMARK    5  A    between atoms: _10  and  _12
REMARK    6  A    between atoms: _12  and  _13
REMARK    7  A    between atoms: _15  and  _17
REMARK    8  A    between atoms: _17  and  _18
REMARK    9  A    between atoms: _17  and  _20
REMARK   10  A    between atoms: _20  and  _21
REMARK   11  A    between atoms: _21  and  _22
REMARK   12  A    between atoms: _27  and  _29
REMARK   13  A    between atoms: _29  and  _30
REMARK   14  A    between atoms: _29  and  _32
REMARK   15  A    between atoms: _32  and  _33
REMARK   16  A    between atoms: _39  and  _41
REMARK   17  A    between atoms: _41  and  _42
REMARK   18  A    between atoms: _41  and  _44
REMARK   19  A    between atoms: _47  and  _49
REMARK   20  A    between atoms: _49  and  _50
REMARK   21  A    between atoms: _49  and  _52
REMARK   22  A    between atoms: _52  and  _53
REMARK   23  A    between atoms: _58  and  _60
REMARK   24  A    between atoms: _60  and  _61
REMARK   25  A    between atoms: _60  and  _63
REMARK   26  A    between atoms: _63  and  _64
REMARK   27  A    between atoms: _64  and  _65
REMARK   28  A    between atoms: _70  and  _72
REMARK   29  A    between atoms: _72  and  _73
REMARK   30  A    between atoms: _76  and  _78
REMARK   31  A    between atoms: _78  and  _79
REMARK   32  A    between atoms: _78  and  _81
REMARK   33  A    between atoms: _84  and  _86
REMARK   34  A    between atoms: _86  and  _87
REMARK   35  A    between atoms: _90  and  _92
REMARK   36  A    between atoms: _92  and  _93
REMARK   37  A    between atoms: _92  and  _95
REMARK   38  A    between atoms: _95  and  _96
REMARK   39  A    between atoms: _99  and  _101
REMARK   40  A    between atoms: _101  and  _102
REMARK   41  A    between atoms: _101  and  _104
REMARK   42  A    between atoms: _104  and  _105
REMARK   43  A    between atoms: _105  and  _106
REMARK   44  A    between atoms: _106  and  _107
REMARK   45  A    between atoms: _107  and  _108
REMARK   46  A    between atoms: _112  and  _114
REMARK   47  A    between atoms: _114  and  _115
REMARK   48  A    between atoms: _114  and  _117
REMARK   49  A    between atoms: _117  and  _118
REMARK   50  A    between atoms: _118  and  _119
REMARK   51  A    between atoms: _122  and  _124
REMARK   52  A    between atoms: _124  and  _125
REMARK   53  A    between atoms: _124  and  _127
REMARK   54  A    between atoms: _127  and  _128
REMARK   55  A    between atoms: _128  and  _129
REMARK   56  A    between atoms: _129  and  _130
REMARK   57  A    between atoms: _130  and  _131
REMARK   58  A    between atoms: _135  and  _137
REMARK   59  A    between atoms: _137  and  _138
REMARK   60  A    between atoms: _137  and  _140
REMARK   61  A    between atoms: _140  and  _141
REMARK   62  A    between atoms: _147  and  _149
REMARK   63  A    between atoms: _149  and  _150
REMARK   64  A    between atoms: _149  and  _152
REMARK   65  A    between atoms: _152  and  _153
REMARK   66  A    between atoms: _156  and  _158
REMARK   67  A    between atoms: _158  and  _159
REMARK   68  A    between atoms: _158  and  _161
REMARK   69  A    between atoms: _161  and  _162
REMARK   70  A    between atoms: _162  and  _163
REMARK   71  A    between atoms: _168  and  _170
REMARK   72  A    between atoms: _170  and  _171
REMARK   73  A    between atoms: _170  and  _173
REMARK   74  A    between atoms: _173  and  _174
REMARK   75  A    between atoms: _174  and  _175
REMARK   76  A    between atoms: _178  and  _180
REMARK   77  A    between atoms: _180  and  _181
REMARK   78  A    between atoms: _184  and  _186
REMARK   79  A    between atoms: _186  and  _187
REMARK   80  A    between atoms: _186  and  _189
REMARK   81  A    between atoms: _189  and  _190
REMARK   82  A    between atoms: _193  and  _195
REMARK   83  A    between atoms: _195  and  _196
REMARK   84  A    between atoms: _195  and  _198
REMARK   85  A    between atoms: _198  and  _199
REMARK   86  A    between atoms: _202  and  _204
REMARK   87  A    between atoms: _204  and  _205
REMARK   88  A    between atoms: _204  and  _207
REMARK   89  A    between atoms: _207  and  _208
REMARK   90  A    between atoms: _208  and  _209
REMARK   91  A    between atoms: _211  and  _213
REMARK   92  A    between atoms: _213  and  _214
REMARK   93  A    between atoms: _213  and  _216
REMARK   94  A    between atoms: _216  and  _217
REMARK   95  A    between atoms: _217  and  _218
REMARK   96  A    between atoms: _218  and  _219
REMARK   97  A    between atoms: _228  and  _230
REMARK   98  A    between atoms: _230  and  _231
REMARK   99  A    between atoms: _230  and  _233
REMARK  100  A    between atoms: _233  and  _234
REMARK  101  A    between atoms: _234  and  _235
REMARK  102  A    between atoms: _240  and  _242
REMARK  103  A    between atoms: _242  and  _243
REMARK  104  A    between atoms: _242  and  _245
REMARK  105  A    between atoms: _245  and  _246
REMARK  106  A    between atoms: _252  and  _254
REMARK  107  A    between atoms: _254  and  _255
REMARK  108  A    between atoms: _254  and  _257
REMARK  109  A    between atoms: _257  and  _258
REMARK  110  A    between atoms: _261  and  _263
REMARK  111  A    between atoms: _263  and  _264
REMARK  112  A    between atoms: _263  and  _266
REMARK  113  A    between atoms: _266  and  _267
REMARK  114  A    between atoms: _272  and  _274
REMARK  115  A    between atoms: _274  and  _275
REMARK  116  A    between atoms: _274  and  _277
REMARK  117  A    between atoms: _277  and  _278
REMARK  118  A    between atoms: _283  and  _285
REMARK  119  A    between atoms: _285  and  _286
REMARK  120  A    between atoms: _285  and  _288
REMARK  121  A    between atoms: _288  and  _289
REMARK  122  A    between atoms: _292  and  _294
REMARK  123  A    between atoms: _294  and  _295
REMARK  124  A    between atoms: _294  and  _297
REMARK  125  A    between atoms: _300  and  _302
REMARK  126  A    between atoms: _302  and  _303
REMARK  127  A    between atoms: _302  and  _305
REMARK  128  A    between atoms: _305  and  _306
REMARK  129  A    between atoms: _306  and  _307
REMARK  130  A    between atoms: _307  and  _308
REMARK  131  A    between atoms: _308  and  _309
REMARK  132  A    between atoms: _313  and  _315
REMARK  133  A    between atoms: _315  and  _316
REMARK  134  A    between atoms: _315  and  _318
REMARK  135  A    between atoms: _318  and  _319
REMARK  136  A    between atoms: _322  and  _324
REMARK  137  A    between atoms: _324  and  _325
REMARK  138  A    between atoms: _324  and  _327
REMARK  139  A    between atoms: _327  and  _328
REMARK  140  A    between atoms: _331  and  _333
REMARK  141  A    between atoms: _333  and  _334
REMARK  142  A    between atoms: _333  and  _336
REMARK  143  A    between atoms: _336  and  _337
REMARK  144  A    between atoms: _340  and  _342
REMARK  145  A    between atoms: _342  and  _343
REMARK  146  A    between atoms: _342  and  _345
REMARK  147  A    between atoms: _345  and  _346
REMARK  148  A    between atoms: _346  and  _347
REMARK  149  A    between atoms: _349  and  _351
REMARK  150  A    between atoms: _351  and  _352
REMARK  151  A    between atoms: _351  and  _354
REMARK  152  A    between atoms: _354  and  _355
REMARK  153  A    between atoms: _355  and  _356
REMARK  154  A    between atoms: _359  and  _361
REMARK  155  A    between atoms: _361  and  _362
REMARK  156  A    between atoms: _361  and  _364
REMARK  157  A    between atoms: _364  and  _365
REMARK  158  A    between atoms: _368  and  _370
REMARK  159  A    between atoms: _370  and  _371
REMARK  160  A    between atoms: _370  and  _373
REMARK  161  A    between atoms: _375  and  _377
REMARK  162  A    between atoms: _377  and  _378
REMARK  163  A    between atoms: _377  and  _380
REMARK  164  A    between atoms: _380  and  _381
REMARK  165  A    between atoms: _384  and  _386
REMARK  166  A    between atoms: _386  and  _387
REMARK  167  A    between atoms: _386  and  _389
REMARK  168  A    between atoms: _389  and  _390
REMARK  169  A    between atoms: _393  and  _395
REMARK  170  A    between atoms: _395  and  _396
REMARK  171  A    between atoms: _398  and  _400
REMARK  172  A    between atoms: _400  and  _401
REMARK  173  A    between atoms: _400  and  _403
REMARK  174  A    between atoms: _403  and  _404
REMARK  175  A    between atoms: _404  and  _405
REMARK  176  A    between atoms: _408  and  _410
REMARK  177  A    between atoms: _410  and  _411
REMARK  178  A    between atoms: _414  and  _416
REMARK  179  A    between atoms: _416  and  _417
REMARK  180  A    between atoms: _416  and  _419
REMARK  181  A    between atoms: _419  and  _420
REMARK  182  A    between atoms: _423  and  _425
REMARK  183  A    between atoms: _425  and  _426
REMARK  184  A    between atoms: _425  and  _428
REMARK  185  A    between atoms: _428  and  _429
REMARK  186  A    between atoms: _434  and  _435
REMARK  187  A    between atoms: _437  and  _439
REMARK  188  A    between atoms: _439  and  _440
REMARK  189  A    between atoms: _439  and  _442
REMARK  190  A    between atoms: _442  and  _443
REMARK  191  A    between atoms: _446  and  _448
REMARK  192  A    between atoms: _448  and  _449
REMARK  193  A    between atoms: _448  and  _451
REMARK  194  A    between atoms: _451  and  _452
REMARK  195  A    between atoms: _458  and  _460
REMARK  196  A    between atoms: _460  and  _461
REMARK  197  A    between atoms: _460  and  _463
REMARK  198  A    between atoms: _466  and  _468
REMARK  199  A    between atoms: _468  and  _469
REMARK  200  A    between atoms: _468  and  _471
REMARK  201  A    between atoms: _471  and  _472
REMARK  202  A    between atoms: _477  and  _479
REMARK  203  A    between atoms: _479  and  _480
REMARK  204  A    between atoms: _479  and  _482
REMARK  205  A    between atoms: _482  and  _483
REMARK  206  A    between atoms: _483  and  _484
REMARK  207  A    between atoms: _484  and  _485
REMARK  208  A    between atoms: _494  and  _496
REMARK  209  A    between atoms: _496  and  _497
REMARK  210  A    between atoms: _496  and  _499
REMARK  211  A    between atoms: _499  and  _500
REMARK  212  A    between atoms: _503  and  _505
REMARK  213  A    between atoms: _505  and  _506
REMARK  214  A    between atoms: _505  and  _508
REMARK  215  A    between atoms: _508  and  _509
REMARK  216  A    between atoms: _514  and  _516
REMARK  217  A    between atoms: _516  and  _517
REMARK  218  A    between atoms: _516  and  _519
REMARK  219  A    between atoms: _519  and  _520
REMARK  220  A    between atoms: _523  and  _525
REMARK  221  A    between atoms: _525  and  _526
REMARK  222  A    between atoms: _525  and  _528
REMARK  223  A    between atoms: _531  and  _533
REMARK  224  A    between atoms: _533  and  _534
REMARK  225  A    between atoms: _533  and  _536
REMARK  226  A    between atoms: _536  and  _537
REMARK  227  A    between atoms: _539  and  _541
REMARK  228  A    between atoms: _541  and  _542
REMARK  229  A    between atoms: _541  and  _544
REMARK  230  A    between atoms: _544  and  _545
REMARK  231  A    between atoms: _545  and  _546
REMARK  232  A    between atoms: _546  and  _547
REMARK  233  A    between atoms: _547  and  _548
REMARK  234  A    between atoms: _552  and  _554
REMARK  235  A    between atoms: _554  and  _555
REMARK  236  A    between atoms: _554  and  _557
REMARK  237  A    between atoms: _557  and  _558
REMARK  238  A    between atoms: _561  and  _563
REMARK  239  A    between atoms: _563  and  _564
REMARK  240  A    between atoms: _566  and  _568
REMARK  241  A    between atoms: _568  and  _569
REMARK  242  A    between atoms: _568  and  _571
REMARK  243  A    between atoms: _571  and  _572
REMARK  244  A    between atoms: _575  and  _577
REMARK  245  A    between atoms: _577  and  _578
REMARK  246  A    between atoms: _577  and  _580
REMARK  247  A    between atoms: _580  and  _581
REMARK  248  A    between atoms: _587  and  _589
REMARK  249  A    between atoms: _589  and  _590
REMARK                            x       y       z     vdW  Elec       q    Type
REMARK                         _______ _______ _______ _____ _____    ______ ____
ROOT
ATOM      1  O   HOH     1       2.526  -8.288   7.168  0.00  0.00    +0.000 OA
ENDROOT
TORSDOF 0
REMARK  Name = ../refined-set-2016/4kao/4kao_pocket.pdb
REMARK  249 active torsions:
REMARK  status: ('A' for Active; 'I' for Inactive)
REMARK    1  A    between atoms: _1  and  _3
REMARK    2  A    between atoms: _3  and  _4
REMARK    3  A    between atoms: _3  and  _6
REMARK    4  A    between atoms: _6  and  _7
REMARK    5  A    between atoms: _10  and  _12
REMARK    6  A    between atoms: _12  and  _13
REMARK    7  A    between atoms: _15  and  _17
REMARK    8  A    between atoms: _17  and  _18
REMARK    9  A    between atoms: _17  and  _20
REMARK   10  A    between atoms: _20  and  _21
REMARK   11  A    between atoms: _21  and  _22
REMARK   12  A    between atoms: _27  and  _29
REMARK   13  A    between atoms: _29  and  _30
REMARK   14  A    between atoms: _29  and  _32
REMARK   15  A    between atoms: _32  and  _33
REMARK   16  A    between atoms: _39  and  _41
REMARK   17  A    between atoms: _41  and  _42
REMARK   18  A    between atoms: _41  and  _44
REMARK   19  A    between atoms: _47  and  _49
REMARK   20  A    between atoms: _49  and  _50
REMARK   21  A    between atoms: _49  and  _52
REMARK   22  A    between atoms: _52  and  _53
REMARK   23  A    between atoms: _58  and  _60
REMARK   24  A    between atoms: _60  and  _61
REMARK   25  A    between atoms: _60  and  _63
REMARK   26  A    between atoms: _63  and  _64
REMARK   27  A    between atoms: _64  and  _65
REMARK   28  A    between atoms: _70  and  _72
REMARK   29  A    between atoms: _72  and  _73
REMARK   30  A    between atoms: _76  and  _78
REMARK   31  A    between atoms: _78  and  _79
REMARK   32  A    between atoms: _78  and  _81
REMARK   33  A    between atoms: _84  and  _86
REMARK   34  A    between atoms: _86  and  _87
REMARK   35  A    between atoms: _90  and  _92
REMARK   36  A    between atoms: _92  and  _93
REMARK   37  A    between atoms: _92  and  _95
REMARK   38  A    between atoms: _95  and  _96
REMARK   39  A    between atoms: _99  and  _101
REMARK   40  A    between atoms: _101  and  _102
REMARK   41  A    between atoms: _101  and  _104
REMARK   42  A    between atoms: _104  and  _105
REMARK   43  A    between atoms: _105  and  _106
REMARK   44  A    between atoms: _106  and  _107
REMARK   45  A    between atoms: _107  and  _108
REMARK   46  A    between atoms: _112  and  _114
REMARK   47  A    between atoms: _114  and  _115
REMARK   48  A    between atoms: _114  and  _117
REMARK   49  A    between atoms: _117  and  _118
REMARK   50  A    between atoms: _118  and  _119
REMARK   51  A    between atoms: _122  and  _124
REMARK   52  A    between atoms: _124  and  _125
REMARK   53  A    between atoms: _124  and  _127
REMARK   54  A    between atoms: _127  and  _128
REMARK   55  A    between atoms: _128  and  _129
REMARK   56  A    between atoms: _129  and  _130
REMARK   57  A    between atoms: _130  and  _131
REMARK   58  A    between atoms: _135  and  _137
REMARK   59  A    between atoms: _137  and  _138
REMARK   60  A    between atoms: _137  and  _140
REMARK   61  A    between atoms: _140  and  _141
REMARK   62  A    between atoms: _147  and  _149
REMARK   63  A    between atoms: _149  and  _150
REMARK   64  A    between atoms: _149  and  _152
REMARK   65  A    between atoms: _152  and  _153
REMARK   66  A    between atoms: _156  and  _158
REMARK   67  A    between atoms: _158  and  _159
REMARK   68  A    between atoms: _158  and  _161
REMARK   69  A    between atoms: _161  and  _162
REMARK   70  A    between atoms: _162  and  _163
REMARK   71  A    between atoms: _168  and  _170
REMARK   72  A    between atoms: _170  and  _171
REMARK   73  A    between atoms: _170  and  _173
REMARK   74  A    between atoms: _173  and  _174
REMARK   75  A    between atoms: _174  and  _175
REMARK   76  A    between atoms: _178  and  _180
REMARK   77  A    between atoms: _180  and  _181
REMARK   78  A    between atoms: _184  and  _186
REMARK   79  A    between atoms: _186  and  _187
REMARK   80  A    between atoms: _186  and  _189
REMARK   81  A    between atoms: _189  and  _190
REMARK   82  A    between atoms: _193  and  _195
REMARK   83  A    between atoms: _195  and  _196
REMARK   84  A    between atoms: _195  and  _198
REMARK   85  A    between atoms: _198  and  _199
REMARK   86  A    between atoms: _202  and  _204
REMARK   87  A    between atoms: _204  and  _205
REMARK   88  A    between atoms: _204  and  _207
REMARK   89  A    between atoms: _207  and  _208
REMARK   90  A    between atoms: _208  and  _209
REMARK   91  A    between atoms: _211  and  _213
REMARK   92  A    between atoms: _213  and  _214
REMARK   93  A    between atoms: _213  and  _216
REMARK   94  A    between atoms: _216  and  _217
REMARK   95  A    between atoms: _217  and  _218
REMARK   96  A    between atoms: _218  and  _219
REMARK   97  A    between atoms: _228  and  _230
REMARK   98  A    between atoms: _230  and  _231
REMARK   99  A    between atoms: _230  and  _233
REMARK  100  A    between atoms: _233  and  _234
REMARK  101  A    between atoms: _234  and  _235
REMARK  102  A    between atoms: _240  and  _242
REMARK  103  A    between atoms: _242  and  _243
REMARK  104  A    between atoms: _242  and  _245
REMARK  105  A    between atoms: _245  and  _246
REMARK  106  A    between atoms: _252  and  _254
REMARK  107  A    between atoms: _254  and  _255
REMARK  108  A    between atoms: _254  and  _257
REMARK  109  A    between atoms: _257  and  _258
REMARK  110  A    between atoms: _261  and  _263
REMARK  111  A    between atoms: _263  and  _264
REMARK  112  A    between atoms: _263  and  _266
REMARK  113  A    between atoms: _266  and  _267
REMARK  114  A    between atoms: _272  and  _274
REMARK  115  A    between atoms: _274  and  _275
REMARK  116  A    between atoms: _274  and  _277
REMARK  117  A    between atoms: _277  and  _278
REMARK  118  A    between atoms: _283  and  _285
REMARK  119  A    between atoms: _285  and  _286
REMARK  120  A    between atoms: _285  and  _288
REMARK  121  A    between atoms: _288  and  _289
REMARK  122  A    between atoms: _292  and  _294
REMARK  123  A    between atoms: _294  and  _295
REMARK  124  A    between atoms: _294  and  _297
REMARK  125  A    between atoms: _300  and  _302
REMARK  126  A    between atoms: _302  and  _303
REMARK  127  A    between atoms: _302  and  _305
REMARK  128  A    between atoms: _305  and  _306
REMARK  129  A    between atoms: _306  and  _307
REMARK  130  A    between atoms: _307  and  _308
REMARK  131  A    between atoms: _308  and  _309
REMARK  132  A    between atoms: _313  and  _315
REMARK  133  A    between atoms: _315  and  _316
REMARK  134  A    between atoms: _315  and  _318
REMARK  135  A    between atoms: _318  and  _319
REMARK  136  A    between atoms: _322  and  _324
REMARK  137  A    between atoms: _324  and  _325
REMARK  138  A    between atoms: _324  and  _327
REMARK  139  A    between atoms: _327  and  _328
REMARK  140  A    between atoms: _331  and  _333
REMARK  141  A    between atoms: _333  and  _334
REMARK  142  A    between atoms: _333  and  _336
REMARK  143  A    between atoms: _336  and  _337
REMARK  144  A    between atoms: _340  and  _342
REMARK  145  A    between atoms: _342  and  _343
REMARK  146  A    between atoms: _342  and  _345
REMARK  147  A    between atoms: _345  and  _346
REMARK  148  A    between atoms: _346  and  _347
REMARK  149  A    between atoms: _349  and  _351
REMARK  150  A    between atoms: _351  and  _352
REMARK  151  A    between atoms: _351  and  _354
REMARK  152  A    between atoms: _354  and  _355
REMARK  153  A    between atoms: _355  and  _356
REMARK  154  A    between atoms: _359  and  _361
REMARK  155  A    between atoms: _361  and  _362
REMARK  156  A    between atoms: _361  and  _364
REMARK  157  A    between atoms: _364  and  _365
REMARK  158  A    between atoms: _368  and  _370
REMARK  159  A    between atoms: _370  and  _371
REMARK  160  A    between atoms: _370  and  _373
REMARK  161  A    between atoms: _375  and  _377
REMARK  162  A    between atoms: _377  and  _378
REMARK  163  A    between atoms: _377  and  _380
REMARK  164  A    between atoms: _380  and  _381
REMARK  165  A    between atoms: _384  and  _386
REMARK  166  A    between atoms: _386  and  _387
REMARK  167  A    between atoms: _386  and  _389
REMARK  168  A    between atoms: _389  and  _390
REMARK  169  A    between atoms: _393  and  _395
REMARK  170  A    between atoms: _395  and  _396
REMARK  171  A    between atoms: _398  and  _400
REMARK  172  A    between atoms: _400  and  _401
REMARK  173  A    between atoms: _400  and  _403
REMARK  174  A    between atoms: _403  and  _404
REMARK  175  A    between atoms: _404  and  _405
REMARK  176  A    between atoms: _408  and  _410
REMARK  177  A    between atoms: _410  and  _411
REMARK  178  A    between atoms: _414  and  _416
REMARK  179  A    between atoms: _416  and  _417
REMARK  180  A    between atoms: _416  and  _419
REMARK  181  A    between atoms: _419  and  _420
REMARK  182  A    between atoms: _423  and  _425
REMARK  183  A    between atoms: _425  and  _426
REMARK  184  A    between atoms: _425  and  _428
REMARK  185  A    between atoms: _428  and  _429
REMARK  186  A    between atoms: _434  and  _435
REMARK  187  A    between atoms: _437  and  _439
REMARK  188  A    between atoms: _439  and  _440
REMARK  189  A    between atoms: _439  and  _442
REMARK  190  A    between atoms: _442  and  _443
REMARK  191  A    between atoms: _446  and  _448
REMARK  192  A    between atoms: _448  and  _449
REMARK  193  A    between atoms: _448  and  _451
REMARK  194  A    between atoms: _451  and  _452
REMARK  195  A    between atoms: _458  and  _460
REMARK  196  A    between atoms: _460  and  _461
REMARK  197  A    between atoms: _460  and  _463
REMARK  198  A    between atoms: _466  and  _468
REMARK  199  A    between atoms: _468  and  _469
REMARK  200  A    between atoms: _468  and  _471
REMARK  201  A    between atoms: _471  and  _472
REMARK  202  A    between atoms: _477  and  _479
REMARK  203  A    between atoms: _479  and  _480
REMARK  204  A    between atoms: _479  and  _482
REMARK  205  A    between atoms: _482  and  _483
REMARK  206  A    between atoms: _483  and  _484
REMARK  207  A    between atoms: _484  and  _485
REMARK  208  A    between atoms: _494  and  _496
REMARK  209  A    between atoms: _496  and  _497
REMARK  210  A    between atoms: _496  and  _499
REMARK  211  A    between atoms: _499  and  _500
REMARK  212  A    between atoms: _503  and  _505
REMARK  213  A    between atoms: _505  and  _506
REMARK  214  A    between atoms: _505  and  _508
REMARK  215  A    between atoms: _508  and  _509
REMARK  216  A    between atoms: _514  and  _516
REMARK  217  A    between atoms: _516  and  _517
REMARK  218  A    between atoms: _516  and  _519
REMARK  219  A    between atoms: _519  and  _520
REMARK  220  A    between atoms: _523  and  _525
REMARK  221  A    between atoms: _525  and  _526
REMARK  222  A    between atoms: _525  and  _528
REMARK  223  A    between atoms: _531  and  _533
REMARK  224  A    between atoms: _533  and  _534
REMARK  225  A    between atoms: _533  and  _536
REMARK  226  A    between atoms: _536  and  _537
REMARK  227  A    between atoms: _539  and  _541
REMARK  228  A    between atoms: _541  and  _542
REMARK  229  A    between atoms: _541  and  _544
REMARK  230  A    between atoms: _544  and  _545
REMARK  231  A    between atoms: _545  and  _546
REMARK  232  A    between atoms: _546  and  _547
REMARK  233  A    between atoms: _547  and  _548
REMARK  234  A    between atoms: _552  and  _554
REMARK  235  A    between atoms: _554  and  _555
REMARK  236  A    between atoms: _554  and  _557
REMARK  237  A    between atoms: _557  and  _558
REMARK  238  A    between atoms: _561  and  _563
REMARK  239  A    between atoms: _563  and  _564
REMARK  240  A    between atoms: _566  and  _568
REMARK  241  A    between atoms: _568  and  _569
REMARK  242  A    between atoms: _568  and  _571
REMARK  243  A    between atoms: _571  and  _572
REMARK  244  A    between atoms: _575  and  _577
REMARK  245  A    between atoms: _577  and  _578
REMARK  246  A    between atoms: _577  and  _580
REMARK  247  A    between atoms: _580  and  _581
REMARK  248  A    between atoms: _587  and  _589
REMARK  249  A    between atoms: _589  and  _590
REMARK                            x       y       z     vdW  Elec       q    Type
REMARK                         _______ _______ _______ _____ _____    ______ ____
ROOT
ATOM      1  O   HOH     1       4.752 -16.838  15.719  0.00  0.00    +0.000 OA
ENDROOT
TORSDOF 0
REMARK  Name = ../refined-set-2016/4kao/4kao_pocket.pdb
REMARK  249 active torsions:
REMARK  status: ('A' for Active; 'I' for Inactive)
REMARK    1  A    between atoms: _1  and  _3
REMARK    2  A    between atoms: _3  and  _4
REMARK    3  A    between atoms: _3  and  _6
REMARK    4  A    between atoms: _6  and  _7
REMARK    5  A    between atoms: _10  and  _12
REMARK    6  A    between atoms: _12  and  _13
REMARK    7  A    between atoms: _15  and  _17
REMARK    8  A    between atoms: _17  and  _18
REMARK    9  A    between atoms: _17  and  _20
REMARK   10  A    between atoms: _20  and  _21
REMARK   11  A    between atoms: _21  and  _22
REMARK   12  A    between atoms: _27  and  _29
REMARK   13  A    between atoms: _29  and  _30
REMARK   14  A    between atoms: _29  and  _32
REMARK   15  A    between atoms: _32  and  _33
REMARK   16  A    between atoms: _39  and  _41
REMARK   17  A    between atoms: _41  and  _42
REMARK   18  A    between atoms: _41  and  _44
REMARK   19  A    between atoms: _47  and  _49
REMARK   20  A    between atoms: _49  and  _50
REMARK   21  A    between atoms: _49  and  _52
REMARK   22  A    between atoms: _52  and  _53
REMARK   23  A    between atoms: _58  and  _60
REMARK   24  A    between atoms: _60  and  _61
REMARK   25  A    between atoms: _60  and  _63
REMARK   26  A    between atoms: _63  and  _64
REMARK   27  A    between atoms: _64  and  _65
REMARK   28  A    between atoms: _70  and  _72
REMARK   29  A    between atoms: _72  and  _73
REMARK   30  A    between atoms: _76  and  _78
REMARK   31  A    between atoms: _78  and  _79
REMARK   32  A    between atoms: _78  and  _81
REMARK   33  A    between atoms: _84  and  _86
REMARK   34  A    between atoms: _86  and  _87
REMARK   35  A    between atoms: _90  and  _92
REMARK   36  A    between atoms: _92  and  _93
REMARK   37  A    between atoms: _92  and  _95
REMARK   38  A    between atoms: _95  and  _96
REMARK   39  A    between atoms: _99  and  _101
REMARK   40  A    between atoms: _101  and  _102
REMARK   41  A    between atoms: _101  and  _104
REMARK   42  A    between atoms: _104  and  _105
REMARK   43  A    between atoms: _105  and  _106
REMARK   44  A    between atoms: _106  and  _107
REMARK   45  A    between atoms: _107  and  _108
REMARK   46  A    between atoms: _112  and  _114
REMARK   47  A    between atoms: _114  and  _115
REMARK   48  A    between atoms: _114  and  _117
REMARK   49  A    between atoms: _117  and  _118
REMARK   50  A    between atoms: _118  and  _119
REMARK   51  A    between atoms: _122  and  _124
REMARK   52  A    between atoms: _124  and  _125
REMARK   53  A    between atoms: _124  and  _127
REMARK   54  A    between atoms: _127  and  _128
REMARK   55  A    between atoms: _128  and  _129
REMARK   56  A    between atoms: _129  and  _130
REMARK   57  A    between atoms: _130  and  _131
REMARK   58  A    between atoms: _135  and  _137
REMARK   59  A    between atoms: _137  and  _138
REMARK   60  A    between atoms: _137  and  _140
REMARK   61  A    between atoms: _140  and  _141
REMARK   62  A    between atoms: _147  and  _149
REMARK   63  A    between atoms: _149  and  _150
REMARK   64  A    between atoms: _149  and  _152
REMARK   65  A    between atoms: _152  and  _153
REMARK   66  A    between atoms: _156  and  _158
REMARK   67  A    between atoms: _158  and  _159
REMARK   68  A    between atoms: _158  and  _161
REMARK   69  A    between atoms: _161  and  _162
REMARK   70  A    between atoms: _162  and  _163
REMARK   71  A    between atoms: _168  and  _170
REMARK   72  A    between atoms: _170  and  _171
REMARK   73  A    between atoms: _170  and  _173
REMARK   74  A    between atoms: _173  and  _174
REMARK   75  A    between atoms: _174  and  _175
REMARK   76  A    between atoms: _178  and  _180
REMARK   77  A    between atoms: _180  and  _181
REMARK   78  A    between atoms: _184  and  _186
REMARK   79  A    between atoms: _186  and  _187
REMARK   80  A    between atoms: _186  and  _189
REMARK   81  A    between atoms: _189  and  _190
REMARK   82  A    between atoms: _193  and  _195
REMARK   83  A    between atoms: _195  and  _196
REMARK   84  A    between atoms: _195  and  _198
REMARK   85  A    between atoms: _198  and  _199
REMARK   86  A    between atoms: _202  and  _204
REMARK   87  A    between atoms: _204  and  _205
REMARK   88  A    between atoms: _204  and  _207
REMARK   89  A    between atoms: _207  and  _208
REMARK   90  A    between atoms: _208  and  _209
REMARK   91  A    between atoms: _211  and  _213
REMARK   92  A    between atoms: _213  and  _214
REMARK   93  A    between atoms: _213  and  _216
REMARK   94  A    between atoms: _216  and  _217
REMARK   95  A    between atoms: _217  and  _218
REMARK   96  A    between atoms: _218  and  _219
REMARK   97  A    between atoms: _228  and  _230
REMARK   98  A    between atoms: _230  and  _231
REMARK   99  A    between atoms: _230  and  _233
REMARK  100  A    between atoms: _233  and  _234
REMARK  101  A    between atoms: _234  and  _235
REMARK  102  A    between atoms: _240  and  _242
REMARK  103  A    between atoms: _242  and  _243
REMARK  104  A    between atoms: _242  and  _245
REMARK  105  A    between atoms: _245  and  _246
REMARK  106  A    between atoms: _252  and  _254
REMARK  107  A    between atoms: _254  and  _255
REMARK  108  A    between atoms: _254  and  _257
REMARK  109  A    between atoms: _257  and  _258
REMARK  110  A    between atoms: _261  and  _263
REMARK  111  A    between atoms: _263  and  _264
REMARK  112  A    between atoms: _263  and  _266
REMARK  113  A    between atoms: _266  and  _267
REMARK  114  A    between atoms: _272  and  _274
REMARK  115  A    between atoms: _274  and  _275
REMARK  116  A    between atoms: _274  and  _277
REMARK  117  A    between atoms: _277  and  _278
REMARK  118  A    between atoms: _283  and  _285
REMARK  119  A    between atoms: _285  and  _286
REMARK  120  A    between atoms: _285  and  _288
REMARK  121  A    between atoms: _288  and  _289
REMARK  122  A    between atoms: _292  and  _294
REMARK  123  A    between atoms: _294  and  _295
REMARK  124  A    between atoms: _294  and  _297
REMARK  125  A    between atoms: _300  and  _302
REMARK  126  A    between atoms: _302  and  _303
REMARK  127  A    between atoms: _302  and  _305
REMARK  128  A    between atoms: _305  and  _306
REMARK  129  A    between atoms: _306  and  _307
REMARK  130  A    between atoms: _307  and  _308
REMARK  131  A    between atoms: _308  and  _309
REMARK  132  A    between atoms: _313  and  _315
REMARK  133  A    between atoms: _315  and  _316
REMARK  134  A    between atoms: _315  and  _318
REMARK  135  A    between atoms: _318  and  _319
REMARK  136  A    between atoms: _322  and  _324
REMARK  137  A    between atoms: _324  and  _325
REMARK  138  A    between atoms: _324  and  _327
REMARK  139  A    between atoms: _327  and  _328
REMARK  140  A    between atoms: _331  and  _333
REMARK  141  A    between atoms: _333  and  _334
REMARK  142  A    between atoms: _333  and  _336
REMARK  143  A    between atoms: _336  and  _337
REMARK  144  A    between atoms: _340  and  _342
REMARK  145  A    between atoms: _342  and  _343
REMARK  146  A    between atoms: _342  and  _345
REMARK  147  A    between atoms: _345  and  _346
REMARK  148  A    between atoms: _346  and  _347
REMARK  149  A    between atoms: _349  and  _351
REMARK  150  A    between atoms: _351  and  _352
REMARK  151  A    between atoms: _351  and  _354
REMARK  152  A    between atoms: _354  and  _355
REMARK  153  A    between atoms: _355  and  _356
REMARK  154  A    between atoms: _359  and  _361
REMARK  155  A    between atoms: _361  and  _362
REMARK  156  A    between atoms: _361  and  _364
REMARK  157  A    between atoms: _364  and  _365
REMARK  158  A    between atoms: _368  and  _370
REMARK  159  A    between atoms: _370  and  _371
REMARK  160  A    between atoms: _370  and  _373
REMARK  161  A    between atoms: _375  and  _377
REMARK  162  A    between atoms: _377  and  _378
REMARK  163  A    between atoms: _377  and  _380
REMARK  164  A    between atoms: _380  and  _381
REMARK  165  A    between atoms: _384  and  _386
REMARK  166  A    between atoms: _386  and  _387
REMARK  167  A    between atoms: _386  and  _389
REMARK  168  A    between atoms: _389  and  _390
REMARK  169  A    between atoms: _393  and  _395
REMARK  170  A    between atoms: _395  and  _396
REMARK  171  A    between atoms: _398  and  _400
REMARK  172  A    between atoms: _400  and  _401
REMARK  173  A    between atoms: _400  and  _403
REMARK  174  A    between atoms: _403  and  _404
REMARK  175  A    between atoms: _404  and  _405
REMARK  176  A    between atoms: _408  and  _410
REMARK  177  A    between atoms: _410  and  _411
REMARK  178  A    between atoms: _414  and  _416
REMARK  179  A    between atoms: _416  and  _417
REMARK  180  A    between atoms: _416  and  _419
REMARK  181  A    between atoms: _419  and  _420
REMARK  182  A    between atoms: _423  and  _425
REMARK  183  A    between atoms: _425  and  _426
REMARK  184  A    between atoms: _425  and  _428
REMARK  185  A    between atoms: _428  and  _429
REMARK  186  A    between atoms: _434  and  _435
REMARK  187  A    between atoms: _437  and  _439
REMARK  188  A    between atoms: _439  and  _440
REMARK  189  A    between atoms: _439  and  _442
REMARK  190  A    between atoms: _442  and  _443
REMARK  191  A    between atoms: _446  and  _448
REMARK  192  A    between atoms: _448  and  _449
REMARK  193  A    between atoms: _448  and  _451
REMARK  194  A    between atoms: _451  and  _452
REMARK  195  A    between atoms: _458  and  _460
REMARK  196  A    between atoms: _460  and  _461
REMARK  197  A    between atoms: _460  and  _463
REMARK  198  A    between atoms: _466  and  _468
REMARK  199  A    between atoms: _468  and  _469
REMARK  200  A    between atoms: _468  and  _471
REMARK  201  A    between atoms: _471  and  _472
REMARK  202  A    between atoms: _477  and  _479
REMARK  203  A    between atoms: _479  and  _480
REMARK  204  A    between atoms: _479  and  _482
REMARK  205  A    between atoms: _482  and  _483
REMARK  206  A    between atoms: _483  and  _484
REMARK  207  A    between atoms: _484  and  _485
REMARK  208  A    between atoms: _494  and  _496
REMARK  209  A    between atoms: _496  and  _497
REMARK  210  A    between atoms: _496  and  _499
REMARK  211  A    between atoms: _499  and  _500
REMARK  212  A    between atoms: _503  and  _505
REMARK  213  A    between atoms: _505  and  _506
REMARK  214  A    between atoms: _505  and  _508
REMARK  215  A    between atoms: _508  and  _509
REMARK  216  A    between atoms: _514  and  _516
REMARK  217  A    between atoms: _516  and  _517
REMARK  218  A    between atoms: _516  and  _519
REMARK  219  A    between atoms: _519  and  _520
REMARK  220  A    between atoms: _523  and  _525
REMARK  221  A    between atoms: _525  and  _526
REMARK  222  A    between atoms: _525  and  _528
REMARK  223  A    between atoms: _531  and  _533
REMARK  224  A    between atoms: _533  and  _534
REMARK  225  A    between atoms: _533  and  _536
REMARK  226  A    between atoms: _536  and  _537
REMARK  227  A    between atoms: _539  and  _541
REMARK  228  A    between atoms: _541  and  _542
REMARK  229  A    between atoms: _541  and  _544
REMARK  230  A    between atoms: _544  and  _545
REMARK  231  A    between atoms: _545  and  _546
REMARK  232  A    between atoms: _546  and  _547
REMARK  233  A    between atoms: _547  and  _548
REMARK  234  A    between atoms: _552  and  _554
REMARK  235  A    between atoms: _554  and  _555
REMARK  236  A    between atoms: _554  and  _557
REMARK  237  A    between atoms: _557  and  _558
REMARK  238  A    between atoms: _561  and  _563
REMARK  239  A    between atoms: _563  and  _564
REMARK  240  A    between atoms: _566  and  _568
REMARK  241  A    between atoms: _568  and  _569
REMARK  242  A    between atoms: _568  and  _571
REMARK  243  A    between atoms: _571  and  _572
REMARK  244  A    between atoms: _575  and  _577
REMARK  245  A    between atoms: _577  and  _578
REMARK  246  A    between atoms: _577  and  _580
REMARK  247  A    between atoms: _580  and  _581
REMARK  248  A    between atoms: _587  and  _589
REMARK  249  A    between atoms: _589  and  _590
REMARK                            x       y       z     vdW  Elec       q    Type
REMARK                         _______ _______ _______ _____ _____    ______ ____
ROOT
ATOM      1  O   HOH     1       1.209 -18.321  20.938  0.00  0.00    +0.000 OA
ENDROOT
TORSDOF 0
REMARK  Name = ../refined-set-2016/4kao/4kao_pocket.pdb
REMARK  249 active torsions:
REMARK  status: ('A' for Active; 'I' for Inactive)
REMARK    1  A    between atoms: _1  and  _3
REMARK    2  A    between atoms: _3  and  _4
REMARK    3  A    between atoms: _3  and  _6
REMARK    4  A    between atoms: _6  and  _7
REMARK    5  A    between atoms: _10  and  _12
REMARK    6  A    between atoms: _12  and  _13
REMARK    7  A    between atoms: _15  and  _17
REMARK    8  A    between atoms: _17  and  _18
REMARK    9  A    between atoms: _17  and  _20
REMARK   10  A    between atoms: _20  and  _21
REMARK   11  A    between atoms: _21  and  _22
REMARK   12  A    between atoms: _27  and  _29
REMARK   13  A    between atoms: _29  and  _30
REMARK   14  A    between atoms: _29  and  _32
REMARK   15  A    between atoms: _32  and  _33
REMARK   16  A    between atoms: _39  and  _41
REMARK   17  A    between atoms: _41  and  _42
REMARK   18  A    between atoms: _41  and  _44
REMARK   19  A    between atoms: _47  and  _49
REMARK   20  A    between atoms: _49  and  _50
REMARK   21  A    between atoms: _49  and  _52
REMARK   22  A    between atoms: _52  and  _53
REMARK   23  A    between atoms: _58  and  _60
REMARK   24  A    between atoms: _60  and  _61
REMARK   25  A    between atoms: _60  and  _63
REMARK   26  A    between atoms: _63  and  _64
REMARK   27  A    between atoms: _64  and  _65
REMARK   28  A    between atoms: _70  and  _72
REMARK   29  A    between atoms: _72  and  _73
REMARK   30  A    between atoms: _76  and  _78
REMARK   31  A    between atoms: _78  and  _79
REMARK   32  A    between atoms: _78  and  _81
REMARK   33  A    between atoms: _84  and  _86
REMARK   34  A    between atoms: _86  and  _87
REMARK   35  A    between atoms: _90  and  _92
REMARK   36  A    between atoms: _92  and  _93
REMARK   37  A    between atoms: _92  and  _95
REMARK   38  A    between atoms: _95  and  _96
REMARK   39  A    between atoms: _99  and  _101
REMARK   40  A    between atoms: _101  and  _102
REMARK   41  A    between atoms: _101  and  _104
REMARK   42  A    between atoms: _104  and  _105
REMARK   43  A    between atoms: _105  and  _106
REMARK   44  A    between atoms: _106  and  _107
REMARK   45  A    between atoms: _107  and  _108
REMARK   46  A    between atoms: _112  and  _114
REMARK   47  A    between atoms: _114  and  _115
REMARK   48  A    between atoms: _114  and  _117
REMARK   49  A    between atoms: _117  and  _118
REMARK   50  A    between atoms: _118  and  _119
REMARK   51  A    between atoms: _122  and  _124
REMARK   52  A    between atoms: _124  and  _125
REMARK   53  A    between atoms: _124  and  _127
REMARK   54  A    between atoms: _127  and  _128
REMARK   55  A    between atoms: _128  and  _129
REMARK   56  A    between atoms: _129  and  _130
REMARK   57  A    between atoms: _130  and  _131
REMARK   58  A    between atoms: _135  and  _137
REMARK   59  A    between atoms: _137  and  _138
REMARK   60  A    between atoms: _137  and  _140
REMARK   61  A    between atoms: _140  and  _141
REMARK   62  A    between atoms: _147  and  _149
REMARK   63  A    between atoms: _149  and  _150
REMARK   64  A    between atoms: _149  and  _152
REMARK   65  A    between atoms: _152  and  _153
REMARK   66  A    between atoms: _156  and  _158
REMARK   67  A    between atoms: _158  and  _159
REMARK   68  A    between atoms: _158  and  _161
REMARK   69  A    between atoms: _161  and  _162
REMARK   70  A    between atoms: _162  and  _163
REMARK   71  A    between atoms: _168  and  _170
REMARK   72  A    between atoms: _170  and  _171
REMARK   73  A    between atoms: _170  and  _173
REMARK   74  A    between atoms: _173  and  _174
REMARK   75  A    between atoms: _174  and  _175
REMARK   76  A    between atoms: _178  and  _180
REMARK   77  A    between atoms: _180  and  _181
REMARK   78  A    between atoms: _184  and  _186
REMARK   79  A    between atoms: _186  and  _187
REMARK   80  A    between atoms: _186  and  _189
REMARK   81  A    between atoms: _189  and  _190
REMARK   82  A    between atoms: _193  and  _195
REMARK   83  A    between atoms: _195  and  _196
REMARK   84  A    between atoms: _195  and  _198
REMARK   85  A    between atoms: _198  and  _199
REMARK   86  A    between atoms: _202  and  _204
REMARK   87  A    between atoms: _204  and  _205
REMARK   88  A    between atoms: _204  and  _207
REMARK   89  A    between atoms: _207  and  _208
REMARK   90  A    between atoms: _208  and  _209
REMARK   91  A    between atoms: _211  and  _213
REMARK   92  A    between atoms: _213  and  _214
REMARK   93  A    between atoms: _213  and  _216
REMARK   94  A    between atoms: _216  and  _217
REMARK   95  A    between atoms: _217  and  _218
REMARK   96  A    between atoms: _218  and  _219
REMARK   97  A    between atoms: _228  and  _230
REMARK   98  A    between atoms: _230  and  _231
REMARK   99  A    between atoms: _230  and  _233
REMARK  100  A    between atoms: _233  and  _234
REMARK  101  A    between atoms: _234  and  _235
REMARK  102  A    between atoms: _240  and  _242
REMARK  103  A    between atoms: _242  and  _243
REMARK  104  A    between atoms: _242  and  _245
REMARK  105  A    between atoms: _245  and  _246
REMARK  106  A    between atoms: _252  and  _254
REMARK  107  A    between atoms: _254  and  _255
REMARK  108  A    between atoms: _254  and  _257
REMARK  109  A    between atoms: _257  and  _258
REMARK  110  A    between atoms: _261  and  _263
REMARK  111  A    between atoms: _263  and  _264
REMARK  112  A    between atoms: _263  and  _266
REMARK  113  A    between atoms: _266  and  _267
REMARK  114  A    between atoms: _272  and  _274
REMARK  115  A    between atoms: _274  and  _275
REMARK  116  A    between atoms: _274  and  _277
REMARK  117  A    between atoms: _277  and  _278
REMARK  118  A    between atoms: _283  and  _285
REMARK  119  A    between atoms: _285  and  _286
REMARK  120  A    between atoms: _285  and  _288
REMARK  121  A    between atoms: _288  and  _289
REMARK  122  A    between atoms: _292  and  _294
REMARK  123  A    between atoms: _294  and  _295
REMARK  124  A    between atoms: _294  and  _297
REMARK  125  A    between atoms: _300  and  _302
REMARK  126  A    between atoms: _302  and  _303
REMARK  127  A    between atoms: _302  and  _305
REMARK  128  A    between atoms: _305  and  _306
REMARK  129  A    between atoms: _306  and  _307
REMARK  130  A    between atoms: _307  and  _308
REMARK  131  A    between atoms: _308  and  _309
REMARK  132  A    between atoms: _313  and  _315
REMARK  133  A    between atoms: _315  and  _316
REMARK  134  A    between atoms: _315  and  _318
REMARK  135  A    between atoms: _318  and  _319
REMARK  136  A    between atoms: _322  and  _324
REMARK  137  A    between atoms: _324  and  _325
REMARK  138  A    between atoms: _324  and  _327
REMARK  139  A    between atoms: _327  and  _328
REMARK  140  A    between atoms: _331  and  _333
REMARK  141  A    between atoms: _333  and  _334
REMARK  142  A    between atoms: _333  and  _336
REMARK  143  A    between atoms: _336  and  _337
REMARK  144  A    between atoms: _340  and  _342
REMARK  145  A    between atoms: _342  and  _343
REMARK  146  A    between atoms: _342  and  _345
REMARK  147  A    between atoms: _345  and  _346
REMARK  148  A    between atoms: _346  and  _347
REMARK  149  A    between atoms: _349  and  _351
REMARK  150  A    between atoms: _351  and  _352
REMARK  151  A    between atoms: _351  and  _354
REMARK  152  A    between atoms: _354  and  _355
REMARK  153  A    between atoms: _355  and  _356
REMARK  154  A    between atoms: _359  and  _361
REMARK  155  A    between atoms: _361  and  _362
REMARK  156  A    between atoms: _361  and  _364
REMARK  157  A    between atoms: _364  and  _365
REMARK  158  A    between atoms: _368  and  _370
REMARK  159  A    between atoms: _370  and  _371
REMARK  160  A    between atoms: _370  and  _373
REMARK  161  A    between atoms: _375  and  _377
REMARK  162  A    between atoms: _377  and  _378
REMARK  163  A    between atoms: _377  and  _380
REMARK  164  A    between atoms: _380  and  _381
REMARK  165  A    between atoms: _384  and  _386
REMARK  166  A    between atoms: _386  and  _387
REMARK  167  A    between atoms: _386  and  _389
REMARK  168  A    between atoms: _389  and  _390
REMARK  169  A    between atoms: _393  and  _395
REMARK  170  A    between atoms: _395  and  _396
REMARK  171  A    between atoms: _398  and  _400
REMARK  172  A    between atoms: _400  and  _401
REMARK  173  A    between atoms: _400  and  _403
REMARK  174  A    between atoms: _403  and  _404
REMARK  175  A    between atoms: _404  and  _405
REMARK  176  A    between atoms: _408  and  _410
REMARK  177  A    between atoms: _410  and  _411
REMARK  178  A    between atoms: _414  and  _416
REMARK  179  A    between atoms: _416  and  _417
REMARK  180  A    between atoms: _416  and  _419
REMARK  181  A    between atoms: _419  and  _420
REMARK  182  A    between atoms: _423  and  _425
REMARK  183  A    between atoms: _425  and  _426
REMARK  184  A    between atoms: _425  and  _428
REMARK  185  A    between atoms: _428  and  _429
REMARK  186  A    between atoms: _434  and  _435
REMARK  187  A    between atoms: _437  and  _439
REMARK  188  A    between atoms: _439  and  _440
REMARK  189  A    between atoms: _439  and  _442
REMARK  190  A    between atoms: _442  and  _443
REMARK  191  A    between atoms: _446  and  _448
REMARK  192  A    between atoms: _448  and  _449
REMARK  193  A    between atoms: _448  and  _451
REMARK  194  A    between atoms: _451  and  _452
REMARK  195  A    between atoms: _458  and  _460
REMARK  196  A    between atoms: _460  and  _461
REMARK  197  A    between atoms: _460  and  _463
REMARK  198  A    between atoms: _466  and  _468
REMARK  199  A    between atoms: _468  and  _469
REMARK  200  A    between atoms: _468  and  _471
REMARK  201  A    between atoms: _471  and  _472
REMARK  202  A    between atoms: _477  and  _479
REMARK  203  A    between atoms: _479  and  _480
REMARK  204  A    between atoms: _479  and  _482
REMARK  205  A    between atoms: _482  and  _483
REMARK  206  A    between atoms: _483  and  _484
REMARK  207  A    between atoms: _484  and  _485
REMARK  208  A    between atoms: _494  and  _496
REMARK  209  A    between atoms: _496  and  _497
REMARK  210  A    between atoms: _496  and  _499
REMARK  211  A    between atoms: _499  and  _500
REMARK  212  A    between atoms: _503  and  _505
REMARK  213  A    between atoms: _505  and  _506
REMARK  214  A    between atoms: _505  and  _508
REMARK  215  A    between atoms: _508  and  _509
REMARK  216  A    between atoms: _514  and  _516
REMARK  217  A    between atoms: _516  and  _517
REMARK  218  A    between atoms: _516  and  _519
REMARK  219  A    between atoms: _519  and  _520
REMARK  220  A    between atoms: _523  and  _525
REMARK  221  A    between atoms: _525  and  _526
REMARK  222  A    between atoms: _525  and  _528
REMARK  223  A    between atoms: _531  and  _533
REMARK  224  A    between atoms: _533  and  _534
REMARK  225  A    between atoms: _533  and  _536
REMARK  226  A    between atoms: _536  and  _537
REMARK  227  A    between atoms: _539  and  _541
REMARK  228  A    between atoms: _541  and  _542
REMARK  229  A    between atoms: _541  and  _544
REMARK  230  A    between atoms: _544  and  _545
REMARK  231  A    between atoms: _545  and  _546
REMARK  232  A    between atoms: _546  and  _547
REMARK  233  A    between atoms: _547  and  _548
REMARK  234  A    between atoms: _552  and  _554
REMARK  235  A    between atoms: _554  and  _555
REMARK  236  A    between atoms: _554  and  _557
REMARK  237  A    between atoms: _557  and  _558
REMARK  238  A    between atoms: _561  and  _563
REMARK  239  A    between atoms: _563  and  _564
REMARK  240  A    between atoms: _566  and  _568
REMARK  241  A    between atoms: _568  and  _569
REMARK  242  A    between atoms: _568  and  _571
REMARK  243  A    between atoms: _571  and  _572
REMARK  244  A    between atoms: _575  and  _577
REMARK  245  A    between atoms: _577  and  _578
REMARK  246  A    between atoms: _577  and  _580
REMARK  247  A    between atoms: _580  and  _581
REMARK  248  A    between atoms: _587  and  _589
REMARK  249  A    between atoms: _589  and  _590
REMARK                            x       y       z     vdW  Elec       q    Type
REMARK                         _______ _______ _______ _____ _____    ______ ____
ROOT
ATOM      1  O   HOH     1       3.343 -10.706  20.586  0.00  0.00    +0.000 OA
ENDROOT
TORSDOF 0
REMARK  Name = ../refined-set-2016/4kao/4kao_pocket.pdb
REMARK  249 active torsions:
REMARK  status: ('A' for Active; 'I' for Inactive)
REMARK    1  A    between atoms: _1  and  _3
REMARK    2  A    between atoms: _3  and  _4
REMARK    3  A    between atoms: _3  and  _6
REMARK    4  A    between atoms: _6  and  _7
REMARK    5  A    between atoms: _10  and  _12
REMARK    6  A    between atoms: _12  and  _13
REMARK    7  A    between atoms: _15  and  _17
REMARK    8  A    between atoms: _17  and  _18
REMARK    9  A    between atoms: _17  and  _20
REMARK   10  A    between atoms: _20  and  _21
REMARK   11  A    between atoms: _21  and  _22
REMARK   12  A    between atoms: _27  and  _29
REMARK   13  A    between atoms: _29  and  _30
REMARK   14  A    between atoms: _29  and  _32
REMARK   15  A    between atoms: _32  and  _33
REMARK   16  A    between atoms: _39  and  _41
REMARK   17  A    between atoms: _41  and  _42
REMARK   18  A    between atoms: _41  and  _44
REMARK   19  A    between atoms: _47  and  _49
REMARK   20  A    between atoms: _49  and  _50
REMARK   21  A    between atoms: _49  and  _52
REMARK   22  A    between atoms: _52  and  _53
REMARK   23  A    between atoms: _58  and  _60
REMARK   24  A    between atoms: _60  and  _61
REMARK   25  A    between atoms: _60  and  _63
REMARK   26  A    between atoms: _63  and  _64
REMARK   27  A    between atoms: _64  and  _65
REMARK   28  A    between atoms: _70  and  _72
REMARK   29  A    between atoms: _72  and  _73
REMARK   30  A    between atoms: _76  and  _78
REMARK   31  A    between atoms: _78  and  _79
REMARK   32  A    between atoms: _78  and  _81
REMARK   33  A    between atoms: _84  and  _86
REMARK   34  A    between atoms: _86  and  _87
REMARK   35  A    between atoms: _90  and  _92
REMARK   36  A    between atoms: _92  and  _93
REMARK   37  A    between atoms: _92  and  _95
REMARK   38  A    between atoms: _95  and  _96
REMARK   39  A    between atoms: _99  and  _101
REMARK   40  A    between atoms: _101  and  _102
REMARK   41  A    between atoms: _101  and  _104
REMARK   42  A    between atoms: _104  and  _105
REMARK   43  A    between atoms: _105  and  _106
REMARK   44  A    between atoms: _106  and  _107
REMARK   45  A    between atoms: _107  and  _108
REMARK   46  A    between atoms: _112  and  _114
REMARK   47  A    between atoms: _114  and  _115
REMARK   48  A    between atoms: _114  and  _117
REMARK   49  A    between atoms: _117  and  _118
REMARK   50  A    between atoms: _118  and  _119
REMARK   51  A    between atoms: _122  and  _124
REMARK   52  A    between atoms: _124  and  _125
REMARK   53  A    between atoms: _124  and  _127
REMARK   54  A    between atoms: _127  and  _128
REMARK   55  A    between atoms: _128  and  _129
REMARK   56  A    between atoms: _129  and  _130
REMARK   57  A    between atoms: _130  and  _131
REMARK   58  A    between atoms: _135  and  _137
REMARK   59  A    between atoms: _137  and  _138
REMARK   60  A    between atoms: _137  and  _140
REMARK   61  A    between atoms: _140  and  _141
REMARK   62  A    between atoms: _147  and  _149
REMARK   63  A    between atoms: _149  and  _150
REMARK   64  A    between atoms: _149  and  _152
REMARK   65  A    between atoms: _152  and  _153
REMARK   66  A    between atoms: _156  and  _158
REMARK   67  A    between atoms: _158  and  _159
REMARK   68  A    between atoms: _158  and  _161
REMARK   69  A    between atoms: _161  and  _162
REMARK   70  A    between atoms: _162  and  _163
REMARK   71  A    between atoms: _168  and  _170
REMARK   72  A    between atoms: _170  and  _171
REMARK   73  A    between atoms: _170  and  _173
REMARK   74  A    between atoms: _173  and  _174
REMARK   75  A    between atoms: _174  and  _175
REMARK   76  A    between atoms: _178  and  _180
REMARK   77  A    between atoms: _180  and  _181
REMARK   78  A    between atoms: _184  and  _186
REMARK   79  A    between atoms: _186  and  _187
REMARK   80  A    between atoms: _186  and  _189
REMARK   81  A    between atoms: _189  and  _190
REMARK   82  A    between atoms: _193  and  _195
REMARK   83  A    between atoms: _195  and  _196
REMARK   84  A    between atoms: _195  and  _198
REMARK   85  A    between atoms: _198  and  _199
REMARK   86  A    between atoms: _202  and  _204
REMARK   87  A    between atoms: _204  and  _205
REMARK   88  A    between atoms: _204  and  _207
REMARK   89  A    between atoms: _207  and  _208
REMARK   90  A    between atoms: _208  and  _209
REMARK   91  A    between atoms: _211  and  _213
REMARK   92  A    between atoms: _213  and  _214
REMARK   93  A    between atoms: _213  and  _216
REMARK   94  A    between atoms: _216  and  _217
REMARK   95  A    between atoms: _217  and  _218
REMARK   96  A    between atoms: _218  and  _219
REMARK   97  A    between atoms: _228  and  _230
REMARK   98  A    between atoms: _230  and  _231
REMARK   99  A    between atoms: _230  and  _233
REMARK  100  A    between atoms: _233  and  _234
REMARK  101  A    between atoms: _234  and  _235
REMARK  102  A    between atoms: _240  and  _242
REMARK  103  A    between atoms: _242  and  _243
REMARK  104  A    between atoms: _242  and  _245
REMARK  105  A    between atoms: _245  and  _246
REMARK  106  A    between atoms: _252  and  _254
REMARK  107  A    between atoms: _254  and  _255
REMARK  108  A    between atoms: _254  and  _257
REMARK  109  A    between atoms: _257  and  _258
REMARK  110  A    between atoms: _261  and  _263
REMARK  111  A    between atoms: _263  and  _264
REMARK  112  A    between atoms: _263  and  _266
REMARK  113  A    between atoms: _266  and  _267
REMARK  114  A    between atoms: _272  and  _274
REMARK  115  A    between atoms: _274  and  _275
REMARK  116  A    between atoms: _274  and  _277
REMARK  117  A    between atoms: _277  and  _278
REMARK  118  A    between atoms: _283  and  _285
REMARK  119  A    between atoms: _285  and  _286
REMARK  120  A    between atoms: _285  and  _288
REMARK  121  A    between atoms: _288  and  _289
REMARK  122  A    between atoms: _292  and  _294
REMARK  123  A    between atoms: _294  and  _295
REMARK  124  A    between atoms: _294  and  _297
REMARK  125  A    between atoms: _300  and  _302
REMARK  126  A    between atoms: _302  and  _303
REMARK  127  A    between atoms: _302  and  _305
REMARK  128  A    between atoms: _305  and  _306
REMARK  129  A    between atoms: _306  and  _307
REMARK  130  A    between atoms: _307  and  _308
REMARK  131  A    between atoms: _308  and  _309
REMARK  132  A    between atoms: _313  and  _315
REMARK  133  A    between atoms: _315  and  _316
REMARK  134  A    between atoms: _315  and  _318
REMARK  135  A    between atoms: _318  and  _319
REMARK  136  A    between atoms: _322  and  _324
REMARK  137  A    between atoms: _324  and  _325
REMARK  138  A    between atoms: _324  and  _327
REMARK  139  A    between atoms: _327  and  _328
REMARK  140  A    between atoms: _331  and  _333
REMARK  141  A    between atoms: _333  and  _334
REMARK  142  A    between atoms: _333  and  _336
REMARK  143  A    between atoms: _336  and  _337
REMARK  144  A    between atoms: _340  and  _342
REMARK  145  A    between atoms: _342  and  _343
REMARK  146  A    between atoms: _342  and  _345
REMARK  147  A    between atoms: _345  and  _346
REMARK  148  A    between atoms: _346  and  _347
REMARK  149  A    between atoms: _349  and  _351
REMARK  150  A    between atoms: _351  and  _352
REMARK  151  A    between atoms: _351  and  _354
REMARK  152  A    between atoms: _354  and  _355
REMARK  153  A    between atoms: _355  and  _356
REMARK  154  A    between atoms: _359  and  _361
REMARK  155  A    between atoms: _361  and  _362
REMARK  156  A    between atoms: _361  and  _364
REMARK  157  A    between atoms: _364  and  _365
REMARK  158  A    between atoms: _368  and  _370
REMARK  159  A    between atoms: _370  and  _371
REMARK  160  A    between atoms: _370  and  _373
REMARK  161  A    between atoms: _375  and  _377
REMARK  162  A    between atoms: _377  and  _378
REMARK  163  A    between atoms: _377  and  _380
REMARK  164  A    between atoms: _380  and  _381
REMARK  165  A    between atoms: _384  and  _386
REMARK  166  A    between atoms: _386  and  _387
REMARK  167  A    between atoms: _386  and  _389
REMARK  168  A    between atoms: _389  and  _390
REMARK  169  A    between atoms: _393  and  _395
REMARK  170  A    between atoms: _395  and  _396
REMARK  171  A    between atoms: _398  and  _400
REMARK  172  A    between atoms: _400  and  _401
REMARK  173  A    between atoms: _400  and  _403
REMARK  174  A    between atoms: _403  and  _404
REMARK  175  A    between atoms: _404  and  _405
REMARK  176  A    between atoms: _408  and  _410
REMARK  177  A    between atoms: _410  and  _411
REMARK  178  A    between atoms: _414  and  _416
REMARK  179  A    between atoms: _416  and  _417
REMARK  180  A    between atoms: _416  and  _419
REMARK  181  A    between atoms: _419  and  _420
REMARK  182  A    between atoms: _423  and  _425
REMARK  183  A    between atoms: _425  and  _426
REMARK  184  A    between atoms: _425  and  _428
REMARK  185  A    between atoms: _428  and  _429
REMARK  186  A    between atoms: _434  and  _435
REMARK  187  A    between atoms: _437  and  _439
REMARK  188  A    between atoms: _439  and  _440
REMARK  189  A    between atoms: _439  and  _442
REMARK  190  A    between atoms: _442  and  _443
REMARK  191  A    between atoms: _446  and  _448
REMARK  192  A    between atoms: _448  and  _449
REMARK  193  A    between atoms: _448  and  _451
REMARK  194  A    between atoms: _451  and  _452
REMARK  195  A    between atoms: _458  and  _460
REMARK  196  A    between atoms: _460  and  _461
REMARK  197  A    between atoms: _460  and  _463
REMARK  198  A    between atoms: _466  and  _468
REMARK  199  A    between atoms: _468  and  _469
REMARK  200  A    between atoms: _468  and  _471
REMARK  201  A    between atoms: _471  and  _472
REMARK  202  A    between atoms: _477  and  _479
REMARK  203  A    between atoms: _479  and  _480
REMARK  204  A    between atoms: _479  and  _482
REMARK  205  A    between atoms: _482  and  _483
REMARK  206  A    between atoms: _483  and  _484
REMARK  207  A    between atoms: _484  and  _485
REMARK  208  A    between atoms: _494  and  _496
REMARK  209  A    between atoms: _496  and  _497
REMARK  210  A    between atoms: _496  and  _499
REMARK  211  A    between atoms: _499  and  _500
REMARK  212  A    between atoms: _503  and  _505
REMARK  213  A    between atoms: _505  and  _506
REMARK  214  A    between atoms: _505  and  _508
REMARK  215  A    between atoms: _508  and  _509
REMARK  216  A    between atoms: _514  and  _516
REMARK  217  A    between atoms: _516  and  _517
REMARK  218  A    between atoms: _516  and  _519
REMARK  219  A    between atoms: _519  and  _520
REMARK  220  A    between atoms: _523  and  _525
REMARK  221  A    between atoms: _525  and  _526
REMARK  222  A    between atoms: _525  and  _528
REMARK  223  A    between atoms: _531  and  _533
REMARK  224  A    between atoms: _533  and  _534
REMARK  225  A    between atoms: _533  and  _536
REMARK  226  A    between atoms: _536  and  _537
REMARK  227  A    between atoms: _539  and  _541
REMARK  228  A    between atoms: _541  and  _542
REMARK  229  A    between atoms: _541  and  _544
REMARK  230  A    between atoms: _544  and  _545
REMARK  231  A    between atoms: _545  and  _546
REMARK  232  A    between atoms: _546  and  _547
REMARK  233  A    between atoms: _547  and  _548
REMARK  234  A    between atoms: _552  and  _554
REMARK  235  A    between atoms: _554  and  _555
REMARK  236  A    between atoms: _554  and  _557
REMARK  237  A    between atoms: _557  and  _558
REMARK  238  A    between atoms: _561  and  _563
REMARK  239  A    between atoms: _563  and  _564
REMARK  240  A    between atoms: _566  and  _568
REMARK  241  A    between atoms: _568  and  _569
REMARK  242  A    between atoms: _568  and  _571
REMARK  243  A    between atoms: _571  and  _572
REMARK  244  A    between atoms: _575  and  _577
REMARK  245  A    between atoms: _577  and  _578
REMARK  246  A    between atoms: _577  and  _580
REMARK  247  A    between atoms: _580  and  _581
REMARK  248  A    between atoms: _587  and  _589
REMARK  249  A    between atoms: _589  and  _590
REMARK                            x       y       z     vdW  Elec       q    Type
REMARK                         _______ _______ _______ _____ _____    ______ ____
ROOT
ATOM      1  O   HOH     1       8.618  -9.430  22.157  0.00  0.00    +0.000 OA
ENDROOT
TORSDOF 0
REMARK  Name = ../refined-set-2016/4kao/4kao_pocket.pdb
REMARK  249 active torsions:
REMARK  status: ('A' for Active; 'I' for Inactive)
REMARK    1  A    between atoms: _1  and  _3
REMARK    2  A    between atoms: _3  and  _4
REMARK    3  A    between atoms: _3  and  _6
REMARK    4  A    between atoms: _6  and  _7
REMARK    5  A    between atoms: _10  and  _12
REMARK    6  A    between atoms: _12  and  _13
REMARK    7  A    between atoms: _15  and  _17
REMARK    8  A    between atoms: _17  and  _18
REMARK    9  A    between atoms: _17  and  _20
REMARK   10  A    between atoms: _20  and  _21
REMARK   11  A    between atoms: _21  and  _22
REMARK   12  A    between atoms: _27  and  _29
REMARK   13  A    between atoms: _29  and  _30
REMARK   14  A    between atoms: _29  and  _32
REMARK   15  A    between atoms: _32  and  _33
REMARK   16  A    between atoms: _39  and  _41
REMARK   17  A    between atoms: _41  and  _42
REMARK   18  A    between atoms: _41  and  _44
REMARK   19  A    between atoms: _47  and  _49
REMARK   20  A    between atoms: _49  and  _50
REMARK   21  A    between atoms: _49  and  _52
REMARK   22  A    between atoms: _52  and  _53
REMARK   23  A    between atoms: _58  and  _60
REMARK   24  A    between atoms: _60  and  _61
REMARK   25  A    between atoms: _60  and  _63
REMARK   26  A    between atoms: _63  and  _64
REMARK   27  A    between atoms: _64  and  _65
REMARK   28  A    between atoms: _70  and  _72
REMARK   29  A    between atoms: _72  and  _73
REMARK   30  A    between atoms: _76  and  _78
REMARK   31  A    between atoms: _78  and  _79
REMARK   32  A    between atoms: _78  and  _81
REMARK   33  A    between atoms: _84  and  _86
REMARK   34  A    between atoms: _86  and  _87
REMARK   35  A    between atoms: _90  and  _92
REMARK   36  A    between atoms: _92  and  _93
REMARK   37  A    between atoms: _92  and  _95
REMARK   38  A    between atoms: _95  and  _96
REMARK   39  A    between atoms: _99  and  _101
REMARK   40  A    between atoms: _101  and  _102
REMARK   41  A    between atoms: _101  and  _104
REMARK   42  A    between atoms: _104  and  _105
REMARK   43  A    between atoms: _105  and  _106
REMARK   44  A    between atoms: _106  and  _107
REMARK   45  A    between atoms: _107  and  _108
REMARK   46  A    between atoms: _112  and  _114
REMARK   47  A    between atoms: _114  and  _115
REMARK   48  A    between atoms: _114  and  _117
REMARK   49  A    between atoms: _117  and  _118
REMARK   50  A    between atoms: _118  and  _119
REMARK   51  A    between atoms: _122  and  _124
REMARK   52  A    between atoms: _124  and  _125
REMARK   53  A    between atoms: _124  and  _127
REMARK   54  A    between atoms: _127  and  _128
REMARK   55  A    between atoms: _128  and  _129
REMARK   56  A    between atoms: _129  and  _130
REMARK   57  A    between atoms: _130  and  _131
REMARK   58  A    between atoms: _135  and  _137
REMARK   59  A    between atoms: _137  and  _138
REMARK   60  A    between atoms: _137  and  _140
REMARK   61  A    between atoms: _140  and  _141
REMARK   62  A    between atoms: _147  and  _149
REMARK   63  A    between atoms: _149  and  _150
REMARK   64  A    between atoms: _149  and  _152
REMARK   65  A    between atoms: _152  and  _153
REMARK   66  A    between atoms: _156  and  _158
REMARK   67  A    between atoms: _158  and  _159
REMARK   68  A    between atoms: _158  and  _161
REMARK   69  A    between atoms: _161  and  _162
REMARK   70  A    between atoms: _162  and  _163
REMARK   71  A    between atoms: _168  and  _170
REMARK   72  A    between atoms: _170  and  _171
REMARK   73  A    between atoms: _170  and  _173
REMARK   74  A    between atoms: _173  and  _174
REMARK   75  A    between atoms: _174  and  _175
REMARK   76  A    between atoms: _178  and  _180
REMARK   77  A    between atoms: _180  and  _181
REMARK   78  A    between atoms: _184  and  _186
REMARK   79  A    between atoms: _186  and  _187
REMARK   80  A    between atoms: _186  and  _189
REMARK   81  A    between atoms: _189  and  _190
REMARK   82  A    between atoms: _193  and  _195
REMARK   83  A    between atoms: _195  and  _196
REMARK   84  A    between atoms: _195  and  _198
REMARK   85  A    between atoms: _198  and  _199
REMARK   86  A    between atoms: _202  and  _204
REMARK   87  A    between atoms: _204  and  _205
REMARK   88  A    between atoms: _204  and  _207
REMARK   89  A    between atoms: _207  and  _208
REMARK   90  A    between atoms: _208  and  _209
REMARK   91  A    between atoms: _211  and  _213
REMARK   92  A    between atoms: _213  and  _214
REMARK   93  A    between atoms: _213  and  _216
REMARK   94  A    between atoms: _216  and  _217
REMARK   95  A    between atoms: _217  and  _218
REMARK   96  A    between atoms: _218  and  _219
REMARK   97  A    between atoms: _228  and  _230
REMARK   98  A    between atoms: _230  and  _231
REMARK   99  A    between atoms: _230  and  _233
REMARK  100  A    between atoms: _233  and  _234
REMARK  101  A    between atoms: _234  and  _235
REMARK  102  A    between atoms: _240  and  _242
REMARK  103  A    between atoms: _242  and  _243
REMARK  104  A    between atoms: _242  and  _245
REMARK  105  A    between atoms: _245  and  _246
REMARK  106  A    between atoms: _252  and  _254
REMARK  107  A    between atoms: _254  and  _255
REMARK  108  A    between atoms: _254  and  _257
REMARK  109  A    between atoms: _257  and  _258
REMARK  110  A    between atoms: _261  and  _263
REMARK  111  A    between atoms: _263  and  _264
REMARK  112  A    between atoms: _263  and  _266
REMARK  113  A    between atoms: _266  and  _267
REMARK  114  A    between atoms: _272  and  _274
REMARK  115  A    between atoms: _274  and  _275
REMARK  116  A    between atoms: _274  and  _277
REMARK  117  A    between atoms: _277  and  _278
REMARK  118  A    between atoms: _283  and  _285
REMARK  119  A    between atoms: _285  and  _286
REMARK  120  A    between atoms: _285  and  _288
REMARK  121  A    between atoms: _288  and  _289
REMARK  122  A    between atoms: _292  and  _294
REMARK  123  A    between atoms: _294  and  _295
REMARK  124  A    between atoms: _294  and  _297
REMARK  125  A    between atoms: _300  and  _302
REMARK  126  A    between atoms: _302  and  _303
REMARK  127  A    between atoms: _302  and  _305
REMARK  128  A    between atoms: _305  and  _306
REMARK  129  A    between atoms: _306  and  _307
REMARK  130  A    between atoms: _307  and  _308
REMARK  131  A    between atoms: _308  and  _309
REMARK  132  A    between atoms: _313  and  _315
REMARK  133  A    between atoms: _315  and  _316
REMARK  134  A    between atoms: _315  and  _318
REMARK  135  A    between atoms: _318  and  _319
REMARK  136  A    between atoms: _322  and  _324
REMARK  137  A    between atoms: _324  and  _325
REMARK  138  A    between atoms: _324  and  _327
REMARK  139  A    between atoms: _327  and  _328
REMARK  140  A    between atoms: _331  and  _333
REMARK  141  A    between atoms: _333  and  _334
REMARK  142  A    between atoms: _333  and  _336
REMARK  143  A    between atoms: _336  and  _337
REMARK  144  A    between atoms: _340  and  _342
REMARK  145  A    between atoms: _342  and  _343
REMARK  146  A    between atoms: _342  and  _345
REMARK  147  A    between atoms: _345  and  _346
REMARK  148  A    between atoms: _346  and  _347
REMARK  149  A    between atoms: _349  and  _351
REMARK  150  A    between atoms: _351  and  _352
REMARK  151  A    between atoms: _351  and  _354
REMARK  152  A    between atoms: _354  and  _355
REMARK  153  A    between atoms: _355  and  _356
REMARK  154  A    between atoms: _359  and  _361
REMARK  155  A    between atoms: _361  and  _362
REMARK  156  A    between atoms: _361  and  _364
REMARK  157  A    between atoms: _364  and  _365
REMARK  158  A    between atoms: _368  and  _370
REMARK  159  A    between atoms: _370  and  _371
REMARK  160  A    between atoms: _370  and  _373
REMARK  161  A    between atoms: _375  and  _377
REMARK  162  A    between atoms: _377  and  _378
REMARK  163  A    between atoms: _377  and  _380
REMARK  164  A    between atoms: _380  and  _381
REMARK  165  A    between atoms: _384  and  _386
REMARK  166  A    between atoms: _386  and  _387
REMARK  167  A    between atoms: _386  and  _389
REMARK  168  A    between atoms: _389  and  _390
REMARK  169  A    between atoms: _393  and  _395
REMARK  170  A    between atoms: _395  and  _396
REMARK  171  A    between atoms: _398  and  _400
REMARK  172  A    between atoms: _400  and  _401
REMARK  173  A    between atoms: _400  and  _403
REMARK  174  A    between atoms: _403  and  _404
REMARK  175  A    between atoms: _404  and  _405
REMARK  176  A    between atoms: _408  and  _410
REMARK  177  A    between atoms: _410  and  _411
REMARK  178  A    between atoms: _414  and  _416
REMARK  179  A    between atoms: _416  and  _417
REMARK  180  A    between atoms: _416  and  _419
REMARK  181  A    between atoms: _419  and  _420
REMARK  182  A    between atoms: _423  and  _425
REMARK  183  A    between atoms: _425  and  _426
REMARK  184  A    between atoms: _425  and  _428
REMARK  185  A    between atoms: _428  and  _429
REMARK  186  A    between atoms: _434  and  _435
REMARK  187  A    between atoms: _437  and  _439
REMARK  188  A    between atoms: _439  and  _440
REMARK  189  A    between atoms: _439  and  _442
REMARK  190  A    between atoms: _442  and  _443
REMARK  191  A    between atoms: _446  and  _448
REMARK  192  A    between atoms: _448  and  _449
REMARK  193  A    between atoms: _448  and  _451
REMARK  194  A    between atoms: _451  and  _452
REMARK  195  A    between atoms: _458  and  _460
REMARK  196  A    between atoms: _460  and  _461
REMARK  197  A    between atoms: _460  and  _463
REMARK  198  A    between atoms: _466  and  _468
REMARK  199  A    between atoms: _468  and  _469
REMARK  200  A    between atoms: _468  and  _471
REMARK  201  A    between atoms: _471  and  _472
REMARK  202  A    between atoms: _477  and  _479
REMARK  203  A    between atoms: _479  and  _480
REMARK  204  A    between atoms: _479  and  _482
REMARK  205  A    between atoms: _482  and  _483
REMARK  206  A    between atoms: _483  and  _484
REMARK  207  A    between atoms: _484  and  _485
REMARK  208  A    between atoms: _494  and  _496
REMARK  209  A    between atoms: _496  and  _497
REMARK  210  A    between atoms: _496  and  _499
REMARK  211  A    between atoms: _499  and  _500
REMARK  212  A    between atoms: _503  and  _505
REMARK  213  A    between atoms: _505  and  _506
REMARK  214  A    between atoms: _505  and  _508
REMARK  215  A    between atoms: _508  and  _509
REMARK  216  A    between atoms: _514  and  _516
REMARK  217  A    between atoms: _516  and  _517
REMARK  218  A    between atoms: _516  and  _519
REMARK  219  A    between atoms: _519  and  _520
REMARK  220  A    between atoms: _523  and  _525
REMARK  221  A    between atoms: _525  and  _526
REMARK  222  A    between atoms: _525  and  _528
REMARK  223  A    between atoms: _531  and  _533
REMARK  224  A    between atoms: _533  and  _534
REMARK  225  A    between atoms: _533  and  _536
REMARK  226  A    between atoms: _536  and  _537
REMARK  227  A    between atoms: _539  and  _541
REMARK  228  A    between atoms: _541  and  _542
REMARK  229  A    between atoms: _541  and  _544
REMARK  230  A    between atoms: _544  and  _545
REMARK  231  A    between atoms: _545  and  _546
REMARK  232  A    between atoms: _546  and  _547
REMARK  233  A    between atoms: _547  and  _548
REMARK  234  A    between atoms: _552  and  _554
REMARK  235  A    between atoms: _554  and  _555
REMARK  236  A    between atoms: _554  and  _557
REMARK  237  A    between atoms: _557  and  _558
REMARK  238  A    between atoms: _561  and  _563
REMARK  239  A    between atoms: _563  and  _564
REMARK  240  A    between atoms: _566  and  _568
REMARK  241  A    between atoms: _568  and  _569
REMARK  242  A    between atoms: _568  and  _571
REMARK  243  A    between atoms: _571  and  _572
REMARK  244  A    between atoms: _575  and  _577
REMARK  245  A    between atoms: _577  and  _578
REMARK  246  A    between atoms: _577  and  _580
REMARK  247  A    between atoms: _580  and  _581
REMARK  248  A    between atoms: _587  and  _589
REMARK  249  A    between atoms: _589  and  _590
REMARK                            x       y       z     vdW  Elec       q    Type
REMARK                         _______ _______ _______ _____ _____    ______ ____
ROOT
ATOM      1  O   HOH     1       5.758  -6.926  25.737  0.00  0.00    +0.000 OA
ENDROOT
TORSDOF 0
