REMARK  Name = ../refined-set-2016/1td7/1td7_pocket.pdb
REMARK  139 active torsions:
REMARK  status: ('A' for Active; 'I' for Inactive)
REMARK    1  A    between atoms: _1  and  _3
REMARK    2  A    between atoms: _3  and  _4
REMARK    3  A    between atoms: _3  and  _6
REMARK    4  A    between atoms: _6  and  _7
REMARK    5  A    between atoms: _10  and  _12
REMARK    6  A    between atoms: _12  and  _13
REMARK    7  A    between atoms: _12  and  _15
REMARK    8  A    between atoms: _15  and  _16
REMARK    9  A    between atoms: _21  and  _22
REMARK   10  A    between atoms: _24  and  _26
REMARK   11  A    between atoms: _26  and  _27
REMARK   12  A    between atoms: _26  and  _29
REMARK   13  A    between atoms: _29  and  _30
REMARK   14  A    between atoms: _36  and  _38
REMARK   15  A    between atoms: _38  and  _39
REMARK   16  A    between atoms: _38  and  _41
REMARK   17  A    between atoms: _41  and  _42
REMARK   18  A    between atoms: _42  and  _43
REMARK   19  A    between atoms: _43  and  _44
REMARK   20  A    between atoms: _44  and  _45
REMARK   21  A    between atoms: _49  and  _51
REMARK   22  A    between atoms: _51  and  _52
REMARK   23  A    between atoms: _51  and  _54
REMARK   24  A    between atoms: _54  and  _55
REMARK   25  A    between atoms: _60  and  _62
REMARK   26  A    between atoms: _62  and  _63
REMARK   27  A    between atoms: _62  and  _65
REMARK   28  A    between atoms: _65  and  _66
REMARK   29  A    between atoms: _69  and  _71
REMARK   30  A    between atoms: _71  and  _72
REMARK   31  A    between atoms: _71  and  _74
REMARK   32  A    between atoms: _74  and  _75
REMARK   33  A    between atoms: _75  and  _76
REMARK   34  A    between atoms: _81  and  _83
REMARK   35  A    between atoms: _83  and  _84
REMARK   36  A    between atoms: _83  and  _86
REMARK   37  A    between atoms: _86  and  _87
REMARK   38  A    between atoms: _89  and  _91
REMARK   39  A    between atoms: _91  and  _92
REMARK   40  A    between atoms: _91  and  _94
REMARK   41  A    between atoms: _94  and  _95
REMARK   42  A    between atoms: _105  and  _107
REMARK   43  A    between atoms: _107  and  _108
REMARK   44  A    between atoms: _107  and  _110
REMARK   45  A    between atoms: _110  and  _111
REMARK   46  A    between atoms: _111  and  _112
REMARK   47  A    between atoms: _117  and  _119
REMARK   48  A    between atoms: _119  and  _120
REMARK   49  A    between atoms: _119  and  _122
REMARK   50  A    between atoms: _122  and  _123
REMARK   51  A    between atoms: _126  and  _128
REMARK   52  A    between atoms: _128  and  _129
REMARK   53  A    between atoms: _128  and  _131
REMARK   54  A    between atoms: _131  and  _132
REMARK   55  A    between atoms: _138  and  _140
REMARK   56  A    between atoms: _140  and  _141
REMARK   57  A    between atoms: _144  and  _146
REMARK   58  A    between atoms: _146  and  _147
REMARK   59  A    between atoms: _146  and  _149
REMARK   60  A    between atoms: _149  and  _150
REMARK   61  A    between atoms: _153  and  _155
REMARK   62  A    between atoms: _155  and  _156
REMARK   63  A    between atoms: _155  and  _158
REMARK   64  A    between atoms: _158  and  _159
REMARK   65  A    between atoms: _164  and  _165
REMARK   66  A    between atoms: _167  and  _169
REMARK   67  A    between atoms: _169  and  _170
REMARK   68  A    between atoms: _169  and  _172
REMARK   69  A    between atoms: _172  and  _173
REMARK   70  A    between atoms: _178  and  _179
REMARK   71  A    between atoms: _181  and  _183
REMARK   72  A    between atoms: _183  and  _184
REMARK   73  A    between atoms: _183  and  _186
REMARK   74  A    between atoms: _186  and  _187
REMARK   75  A    between atoms: _187  and  _233
REMARK   76  A    between atoms: _188  and  _190
REMARK   77  A    between atoms: _190  and  _191
REMARK   78  A    between atoms: _191  and  _192
REMARK   79  A    between atoms: _191  and  _193
REMARK   80  A    between atoms: _192  and  CA_339
REMARK   81  A    between atoms: _193  and  _195
REMARK   82  A    between atoms: _195  and  _196
REMARK   83  A    between atoms: _195  and  _198
REMARK   84  A    between atoms: _198  and  _199
REMARK   85  A    between atoms: _199  and  _200
REMARK   86  A    between atoms: _200  and  _201
REMARK   87  A    between atoms: _201  and  _202
REMARK   88  A    between atoms: _206  and  _208
REMARK   89  A    between atoms: _208  and  _209
REMARK   90  A    between atoms: _211  and  _213
REMARK   91  A    between atoms: _213  and  _214
REMARK   92  A    between atoms: _213  and  _216
REMARK   93  A    between atoms: _216  and  _217
REMARK   94  A    between atoms: _220  and  _222
REMARK   95  A    between atoms: _222  and  _223
REMARK   96  A    between atoms: _222  and  _225
REMARK   97  A    between atoms: _227  and  _229
REMARK   98  A    between atoms: _229  and  _230
REMARK   99  A    between atoms: _229  and  _232
REMARK  100  A    between atoms: _232  and  _233
REMARK  101  A    between atoms: _234  and  _236
REMARK  102  A    between atoms: _236  and  _237
REMARK  103  A    between atoms: _236  and  _239
REMARK  104  A    between atoms: _239  and  _240
REMARK  105  A    between atoms: _240  and  _241
REMARK  106  A    between atoms: _246  and  _248
REMARK  107  A    between atoms: _248  and  _249
REMARK  108  A    between atoms: _248  and  _251
REMARK  109  A    between atoms: _251  and  _252
REMARK  110  A    between atoms: _257  and  _259
REMARK  111  A    between atoms: _259  and  _260
REMARK  112  A    between atoms: _259  and  _262
REMARK  113  A    between atoms: _262  and  _263
REMARK  114  A    between atoms: _266  and  _268
REMARK  115  A    between atoms: _268  and  _269
REMARK  116  A    between atoms: _268  and  _271
REMARK  117  A    between atoms: _271  and  _272
REMARK  118  A    between atoms: _277  and  _278
REMARK  119  A    between atoms: _280  and  _282
REMARK  120  A    between atoms: _282  and  _283
REMARK  121  A    between atoms: _282  and  _285
REMARK  122  A    between atoms: _285  and  _286
REMARK  123  A    between atoms: _291  and  _292
REMARK  124  A    between atoms: _294  and  _296
REMARK  125  A    between atoms: _296  and  _297
REMARK  126  A    between atoms: _296  and  _299
REMARK  127  A    between atoms: _299  and  _300
REMARK  128  A    between atoms: _306  and  _308
REMARK  129  A    between atoms: _308  and  _309
REMARK  130  A    between atoms: _308  and  _311
REMARK  131  A    between atoms: _311  and  _312
REMARK  132  A    between atoms: _315  and  _317
REMARK  133  A    between atoms: _317  and  _318
REMARK  134  A    between atoms: _321  and  _323
REMARK  135  A    between atoms: _323  and  _324
REMARK  136  A    between atoms: _327  and  _329
REMARK  137  A    between atoms: _329  and  _330
REMARK  138  A    between atoms: _329  and  _332
REMARK  139  A    between atoms: _332  and  _333
REMARK                            x       y       z     vdW  Elec       q    Type
REMARK                         _______ _______ _______ _____ _____    ______ ____
ROOT
ATOM      1  CA  TYR A   2       4.302  16.987   9.141  0.00  0.00    +0.141 C 
ENDROOT
BRANCH   1   3
ATOM      2  C   LEU A   1       6.349  17.219   7.896  0.00  0.00    +0.238 C 
ATOM      3  N   TYR A   2       5.721  17.253   9.054  0.00  0.00    -0.298 N 
ATOM      4  H   TYR A   2       6.254  17.475   9.919  0.00  0.00    +0.150 HD
ATOM      5  O   LEU A   1       5.789  16.892   6.874  0.00  0.00    -0.274 OA
BRANCH   2   6
ATOM      6  CA  LEU A   1       7.837  17.559   7.885  0.00  0.00    +0.145 C 
BRANCH   6   7
ATOM      7  N   LEU A   1       8.226  18.691   8.710  0.00  0.00    -0.238 NA
ATOM      8  H   LEU A   1       9.130  18.634   9.221  0.00  0.00    +0.142 HD
ENDBRANCH   6   7
BRANCH   6   9
ATOM      9  CB  LEU A   1       8.642  16.351   8.311  0.00  0.00    +0.026 C 
BRANCH   9  10
ATOM     10  CG  LEU A   1       9.479  15.747   7.193  0.00  0.00    +0.002 C 
ATOM     11  CD2 LEU A   1      10.347  14.655   7.765  0.00  0.00    +0.000 C 
ATOM     12  CD1 LEU A   1      10.400  16.784   6.445  0.00  0.00    +0.000 C 
ENDBRANCH   9  10
ENDBRANCH   6   9
ENDBRANCH   2   6
ENDBRANCH   1   3
BRANCH   1  13
ATOM     13  C   TYR A   2       3.591  18.067   8.329  0.00  0.00    +0.227 C 
ATOM     14  O   TYR A   2       2.743  17.807   7.492  0.00  0.00    -0.286 OA
ENDBRANCH   1  13
BRANCH   1  15
ATOM     15  CB  TYR A   2       3.842  17.040  10.611  0.00  0.00    +0.054 C 
BRANCH  15  16
ATOM     16  CG  TYR A   2       2.338  16.931  10.815  0.00  0.00    -0.020 A 
ATOM     17  CD2 TYR A   2       1.583  18.049  11.140  0.00  0.00    -0.001 A 
ATOM     18  CE2 TYR A   2       0.243  17.961  11.323  0.00  0.00    +0.036 A 
ATOM     19  CZ  TYR A   2      -0.386  16.757  11.170  0.00  0.00    +0.134 A 
ATOM     20  CE1 TYR A   2       0.327  15.635  10.836  0.00  0.00    +0.036 A 
ATOM     21  CD1 TYR A   2       1.679  15.720  10.669  0.00  0.00    -0.001 A 
BRANCH  19  22
ATOM     22  OH  TYR A   2      -1.743  16.681  11.340  0.00  0.00    -0.506 OA
ATOM     23  HH  TYR A   2      -2.041  15.748  11.196  0.00  0.00    +0.292 HD
ENDBRANCH  19  22
ENDBRANCH  15  16
ENDBRANCH   1  15
TORSDOF 9
REMARK  Name = ../refined-set-2016/1td7/1td7_pocket.pdb
REMARK  139 active torsions:
REMARK  status: ('A' for Active; 'I' for Inactive)
REMARK    1  A    between atoms: _1  and  _3
REMARK    2  A    between atoms: _3  and  _4
REMARK    3  A    between atoms: _3  and  _6
REMARK    4  A    between atoms: _6  and  _7
REMARK    5  A    between atoms: _10  and  _12
REMARK    6  A    between atoms: _12  and  _13
REMARK    7  A    between atoms: _12  and  _15
REMARK    8  A    between atoms: _15  and  _16
REMARK    9  A    between atoms: _21  and  _22
REMARK   10  A    between atoms: _24  and  _26
REMARK   11  A    between atoms: _26  and  _27
REMARK   12  A    between atoms: _26  and  _29
REMARK   13  A    between atoms: _29  and  _30
REMARK   14  A    between atoms: _36  and  _38
REMARK   15  A    between atoms: _38  and  _39
REMARK   16  A    between atoms: _38  and  _41
REMARK   17  A    between atoms: _41  and  _42
REMARK   18  A    between atoms: _42  and  _43
REMARK   19  A    between atoms: _43  and  _44
REMARK   20  A    between atoms: _44  and  _45
REMARK   21  A    between atoms: _49  and  _51
REMARK   22  A    between atoms: _51  and  _52
REMARK   23  A    between atoms: _51  and  _54
REMARK   24  A    between atoms: _54  and  _55
REMARK   25  A    between atoms: _60  and  _62
REMARK   26  A    between atoms: _62  and  _63
REMARK   27  A    between atoms: _62  and  _65
REMARK   28  A    between atoms: _65  and  _66
REMARK   29  A    between atoms: _69  and  _71
REMARK   30  A    between atoms: _71  and  _72
REMARK   31  A    between atoms: _71  and  _74
REMARK   32  A    between atoms: _74  and  _75
REMARK   33  A    between atoms: _75  and  _76
REMARK   34  A    between atoms: _81  and  _83
REMARK   35  A    between atoms: _83  and  _84
REMARK   36  A    between atoms: _83  and  _86
REMARK   37  A    between atoms: _86  and  _87
REMARK   38  A    between atoms: _89  and  _91
REMARK   39  A    between atoms: _91  and  _92
REMARK   40  A    between atoms: _91  and  _94
REMARK   41  A    between atoms: _94  and  _95
REMARK   42  A    between atoms: _105  and  _107
REMARK   43  A    between atoms: _107  and  _108
REMARK   44  A    between atoms: _107  and  _110
REMARK   45  A    between atoms: _110  and  _111
REMARK   46  A    between atoms: _111  and  _112
REMARK   47  A    between atoms: _117  and  _119
REMARK   48  A    between atoms: _119  and  _120
REMARK   49  A    between atoms: _119  and  _122
REMARK   50  A    between atoms: _122  and  _123
REMARK   51  A    between atoms: _126  and  _128
REMARK   52  A    between atoms: _128  and  _129
REMARK   53  A    between atoms: _128  and  _131
REMARK   54  A    between atoms: _131  and  _132
REMARK   55  A    between atoms: _138  and  _140
REMARK   56  A    between atoms: _140  and  _141
REMARK   57  A    between atoms: _144  and  _146
REMARK   58  A    between atoms: _146  and  _147
REMARK   59  A    between atoms: _146  and  _149
REMARK   60  A    between atoms: _149  and  _150
REMARK   61  A    between atoms: _153  and  _155
REMARK   62  A    between atoms: _155  and  _156
REMARK   63  A    between atoms: _155  and  _158
REMARK   64  A    between atoms: _158  and  _159
REMARK   65  A    between atoms: _164  and  _165
REMARK   66  A    between atoms: _167  and  _169
REMARK   67  A    between atoms: _169  and  _170
REMARK   68  A    between atoms: _169  and  _172
REMARK   69  A    between atoms: _172  and  _173
REMARK   70  A    between atoms: _178  and  _179
REMARK   71  A    between atoms: _181  and  _183
REMARK   72  A    between atoms: _183  and  _184
REMARK   73  A    between atoms: _183  and  _186
REMARK   74  A    between atoms: _186  and  _187
REMARK   75  A    between atoms: _187  and  _233
REMARK   76  A    between atoms: _188  and  _190
REMARK   77  A    between atoms: _190  and  _191
REMARK   78  A    between atoms: _191  and  _192
REMARK   79  A    between atoms: _191  and  _193
REMARK   80  A    between atoms: _192  and  CA_339
REMARK   81  A    between atoms: _193  and  _195
REMARK   82  A    between atoms: _195  and  _196
REMARK   83  A    between atoms: _195  and  _198
REMARK   84  A    between atoms: _198  and  _199
REMARK   85  A    between atoms: _199  and  _200
REMARK   86  A    between atoms: _200  and  _201
REMARK   87  A    between atoms: _201  and  _202
REMARK   88  A    between atoms: _206  and  _208
REMARK   89  A    between atoms: _208  and  _209
REMARK   90  A    between atoms: _211  and  _213
REMARK   91  A    between atoms: _213  and  _214
REMARK   92  A    between atoms: _213  and  _216
REMARK   93  A    between atoms: _216  and  _217
REMARK   94  A    between atoms: _220  and  _222
REMARK   95  A    between atoms: _222  and  _223
REMARK   96  A    between atoms: _222  and  _225
REMARK   97  A    between atoms: _227  and  _229
REMARK   98  A    between atoms: _229  and  _230
REMARK   99  A    between atoms: _229  and  _232
REMARK  100  A    between atoms: _232  and  _233
REMARK  101  A    between atoms: _234  and  _236
REMARK  102  A    between atoms: _236  and  _237
REMARK  103  A    between atoms: _236  and  _239
REMARK  104  A    between atoms: _239  and  _240
REMARK  105  A    between atoms: _240  and  _241
REMARK  106  A    between atoms: _246  and  _248
REMARK  107  A    between atoms: _248  and  _249
REMARK  108  A    between atoms: _248  and  _251
REMARK  109  A    between atoms: _251  and  _252
REMARK  110  A    between atoms: _257  and  _259
REMARK  111  A    between atoms: _259  and  _260
REMARK  112  A    between atoms: _259  and  _262
REMARK  113  A    between atoms: _262  and  _263
REMARK  114  A    between atoms: _266  and  _268
REMARK  115  A    between atoms: _268  and  _269
REMARK  116  A    between atoms: _268  and  _271
REMARK  117  A    between atoms: _271  and  _272
REMARK  118  A    between atoms: _277  and  _278
REMARK  119  A    between atoms: _280  and  _282
REMARK  120  A    between atoms: _282  and  _283
REMARK  121  A    between atoms: _282  and  _285
REMARK  122  A    between atoms: _285  and  _286
REMARK  123  A    between atoms: _291  and  _292
REMARK  124  A    between atoms: _294  and  _296
REMARK  125  A    between atoms: _296  and  _297
REMARK  126  A    between atoms: _296  and  _299
REMARK  127  A    between atoms: _299  and  _300
REMARK  128  A    between atoms: _306  and  _308
REMARK  129  A    between atoms: _308  and  _309
REMARK  130  A    between atoms: _308  and  _311
REMARK  131  A    between atoms: _311  and  _312
REMARK  132  A    between atoms: _315  and  _317
REMARK  133  A    between atoms: _317  and  _318
REMARK  134  A    between atoms: _321  and  _323
REMARK  135  A    between atoms: _323  and  _324
REMARK  136  A    between atoms: _327  and  _329
REMARK  137  A    between atoms: _329  and  _330
REMARK  138  A    between atoms: _329  and  _332
REMARK  139  A    between atoms: _332  and  _333
REMARK                            x       y       z     vdW  Elec       q    Type
REMARK                         _______ _______ _______ _____ _____    ______ ____
ROOT
ATOM      1  CA  LYS A   2       3.418  16.414   4.331  0.00  0.00    +0.149 C 
ENDROOT
BRANCH   1   3
ATOM      2  C   PHE A   1       4.328  18.656   4.013  0.00  0.00    +0.239 C 
ATOM      3  N   LYS A   2       4.225  17.551   4.741  0.00  0.00    -0.297 N 
ATOM      4  H   LYS A   2       4.743  17.497   5.641  0.00  0.00    +0.150 HD
ATOM      5  O   PHE A   1       3.793  18.808   2.908  0.00  0.00    -0.274 OA
BRANCH   2   6
ATOM      6  CA  PHE A   1       5.150  19.749   4.621  0.00  0.00    +0.149 C 
BRANCH   6   7
ATOM      7  N   PHE A   1       4.803  19.867   6.024  0.00  0.00    -0.238 NA
ATOM      8  H   PHE A   1       5.497  19.593   6.749  0.00  0.00    +0.142 HD
ENDBRANCH   6   7
BRANCH   6   9
ATOM      9  CB  PHE A   1       6.633  19.443   4.437  0.00  0.00    +0.053 C 
BRANCH   9  10
ATOM     10  CG  PHE A   1       7.061  19.347   2.984  0.00  0.00    -0.020 A 
ATOM     11  CD2 PHE A   1       7.886  18.320   2.560  0.00  0.00    -0.004 A 
ATOM     12  CE2 PHE A   1       8.282  18.226   1.286  0.00  0.00    -0.000 A 
ATOM     13  CZ  PHE A   1       7.853  19.180   0.380  0.00  0.00    -0.000 A 
ATOM     14  CE1 PHE A   1       7.011  20.208   0.787  0.00  0.00    -0.000 A 
ATOM     15  CD1 PHE A   1       6.635  20.283   2.069  0.00  0.00    -0.004 A 
ENDBRANCH   9  10
ENDBRANCH   6   9
ENDBRANCH   2   6
ENDBRANCH   1   3
BRANCH   1  16
ATOM     16  C   LYS A   2       2.007  16.926   4.070  0.00  0.00    +0.241 C 
ATOM     17  N   ASN A   3       1.521  17.783   4.945  0.00  0.00    -0.298 N 
ATOM     18  H   ASN A   3       2.093  18.092   5.757  0.00  0.00    +0.150 HD
ATOM     19  O   LYS A   2       1.366  16.597   3.064  0.00  0.00    -0.273 OA
BRANCH  17  20
ATOM     20  CA  ASN A   3       0.169  18.291   4.757  0.00  0.00    +0.146 C 
BRANCH  20  21
ATOM     21  C   ASN A   3       0.023  19.293   3.610  0.00  0.00    +0.227 C 
ATOM     22  O   ASN A   3      -1.030  19.371   3.005  0.00  0.00    -0.286 OA
ENDBRANCH  20  21
BRANCH  20  23
ATOM     23  CB  ASN A   3      -0.361  18.885   6.047  0.00  0.00    +0.112 C 
BRANCH  23  24
ATOM     24  CG  ASN A   3      -0.982  17.851   6.944  0.00  0.00    +0.222 C 
ATOM     25  ND2 ASN A   3      -0.169  17.243   7.795  0.00  0.00    -0.329 N 
ATOM     26 HD21 ASN A   3      -0.544  16.530   8.453  0.00  0.00    +0.145 HD
ATOM     27 HD22 ASN A   3       0.844  17.478   7.805  0.00  0.00    +0.145 HD
ATOM     28  OD1 ASN A   3      -2.186  17.611   6.890  0.00  0.00    -0.275 OA
ENDBRANCH  23  24
ENDBRANCH  20  23
ENDBRANCH  17  20
ENDBRANCH   1  16
BRANCH   1  29
ATOM     29  CB  LYS A   2       3.413  15.349   5.426  0.00  0.00    +0.029 C 
BRANCH  29  30
ATOM     30  CG  LYS A   2       4.390  14.185   5.221  0.00  0.00    +0.000 C 
BRANCH  30  31
ATOM     31  CD  LYS A   2       5.237  13.853   6.476  0.00  0.00    -0.024 C 
BRANCH  31  32
ATOM     32  CE  LYS A   2       5.556  12.336   6.578  0.00  0.00    -0.086 C 
BRANCH  32  33
ATOM     33  NZ  LYS A   2       6.650  11.981   7.558  0.00  0.00    +0.380 N 
ATOM     34  HZ1 LYS A   2       6.375  12.294   8.511  0.00  0.00    -0.089 HD
ATOM     35  HZ2 LYS A   2       6.793  10.951   7.558  0.00  0.00    -0.089 HD
ATOM     36  HZ3 LYS A   2       7.532  12.455   7.277  0.00  0.00    -0.089 HD
ENDBRANCH  32  33
ENDBRANCH  31  32
ENDBRANCH  30  31
ENDBRANCH  29  30
ENDBRANCH   1  29
TORSDOF 15
REMARK  Name = ../refined-set-2016/1td7/1td7_pocket.pdb
REMARK  139 active torsions:
REMARK  status: ('A' for Active; 'I' for Inactive)
REMARK    1  A    between atoms: _1  and  _3
REMARK    2  A    between atoms: _3  and  _4
REMARK    3  A    between atoms: _3  and  _6
REMARK    4  A    between atoms: _6  and  _7
REMARK    5  A    between atoms: _10  and  _12
REMARK    6  A    between atoms: _12  and  _13
REMARK    7  A    between atoms: _12  and  _15
REMARK    8  A    between atoms: _15  and  _16
REMARK    9  A    between atoms: _21  and  _22
REMARK   10  A    between atoms: _24  and  _26
REMARK   11  A    between atoms: _26  and  _27
REMARK   12  A    between atoms: _26  and  _29
REMARK   13  A    between atoms: _29  and  _30
REMARK   14  A    between atoms: _36  and  _38
REMARK   15  A    between atoms: _38  and  _39
REMARK   16  A    between atoms: _38  and  _41
REMARK   17  A    between atoms: _41  and  _42
REMARK   18  A    between atoms: _42  and  _43
REMARK   19  A    between atoms: _43  and  _44
REMARK   20  A    between atoms: _44  and  _45
REMARK   21  A    between atoms: _49  and  _51
REMARK   22  A    between atoms: _51  and  _52
REMARK   23  A    between atoms: _51  and  _54
REMARK   24  A    between atoms: _54  and  _55
REMARK   25  A    between atoms: _60  and  _62
REMARK   26  A    between atoms: _62  and  _63
REMARK   27  A    between atoms: _62  and  _65
REMARK   28  A    between atoms: _65  and  _66
REMARK   29  A    between atoms: _69  and  _71
REMARK   30  A    between atoms: _71  and  _72
REMARK   31  A    between atoms: _71  and  _74
REMARK   32  A    between atoms: _74  and  _75
REMARK   33  A    between atoms: _75  and  _76
REMARK   34  A    between atoms: _81  and  _83
REMARK   35  A    between atoms: _83  and  _84
REMARK   36  A    between atoms: _83  and  _86
REMARK   37  A    between atoms: _86  and  _87
REMARK   38  A    between atoms: _89  and  _91
REMARK   39  A    between atoms: _91  and  _92
REMARK   40  A    between atoms: _91  and  _94
REMARK   41  A    between atoms: _94  and  _95
REMARK   42  A    between atoms: _105  and  _107
REMARK   43  A    between atoms: _107  and  _108
REMARK   44  A    between atoms: _107  and  _110
REMARK   45  A    between atoms: _110  and  _111
REMARK   46  A    between atoms: _111  and  _112
REMARK   47  A    between atoms: _117  and  _119
REMARK   48  A    between atoms: _119  and  _120
REMARK   49  A    between atoms: _119  and  _122
REMARK   50  A    between atoms: _122  and  _123
REMARK   51  A    between atoms: _126  and  _128
REMARK   52  A    between atoms: _128  and  _129
REMARK   53  A    between atoms: _128  and  _131
REMARK   54  A    between atoms: _131  and  _132
REMARK   55  A    between atoms: _138  and  _140
REMARK   56  A    between atoms: _140  and  _141
REMARK   57  A    between atoms: _144  and  _146
REMARK   58  A    between atoms: _146  and  _147
REMARK   59  A    between atoms: _146  and  _149
REMARK   60  A    between atoms: _149  and  _150
REMARK   61  A    between atoms: _153  and  _155
REMARK   62  A    between atoms: _155  and  _156
REMARK   63  A    between atoms: _155  and  _158
REMARK   64  A    between atoms: _158  and  _159
REMARK   65  A    between atoms: _164  and  _165
REMARK   66  A    between atoms: _167  and  _169
REMARK   67  A    between atoms: _169  and  _170
REMARK   68  A    between atoms: _169  and  _172
REMARK   69  A    between atoms: _172  and  _173
REMARK   70  A    between atoms: _178  and  _179
REMARK   71  A    between atoms: _181  and  _183
REMARK   72  A    between atoms: _183  and  _184
REMARK   73  A    between atoms: _183  and  _186
REMARK   74  A    between atoms: _186  and  _187
REMARK   75  A    between atoms: _187  and  _233
REMARK   76  A    between atoms: _188  and  _190
REMARK   77  A    between atoms: _190  and  _191
REMARK   78  A    between atoms: _191  and  _192
REMARK   79  A    between atoms: _191  and  _193
REMARK   80  A    between atoms: _192  and  CA_339
REMARK   81  A    between atoms: _193  and  _195
REMARK   82  A    between atoms: _195  and  _196
REMARK   83  A    between atoms: _195  and  _198
REMARK   84  A    between atoms: _198  and  _199
REMARK   85  A    between atoms: _199  and  _200
REMARK   86  A    between atoms: _200  and  _201
REMARK   87  A    between atoms: _201  and  _202
REMARK   88  A    between atoms: _206  and  _208
REMARK   89  A    between atoms: _208  and  _209
REMARK   90  A    between atoms: _211  and  _213
REMARK   91  A    between atoms: _213  and  _214
REMARK   92  A    between atoms: _213  and  _216
REMARK   93  A    between atoms: _216  and  _217
REMARK   94  A    between atoms: _220  and  _222
REMARK   95  A    between atoms: _222  and  _223
REMARK   96  A    between atoms: _222  and  _225
REMARK   97  A    between atoms: _227  and  _229
REMARK   98  A    between atoms: _229  and  _230
REMARK   99  A    between atoms: _229  and  _232
REMARK  100  A    between atoms: _232  and  _233
REMARK  101  A    between atoms: _234  and  _236
REMARK  102  A    between atoms: _236  and  _237
REMARK  103  A    between atoms: _236  and  _239
REMARK  104  A    between atoms: _239  and  _240
REMARK  105  A    between atoms: _240  and  _241
REMARK  106  A    between atoms: _246  and  _248
REMARK  107  A    between atoms: _248  and  _249
REMARK  108  A    between atoms: _248  and  _251
REMARK  109  A    between atoms: _251  and  _252
REMARK  110  A    between atoms: _257  and  _259
REMARK  111  A    between atoms: _259  and  _260
REMARK  112  A    between atoms: _259  and  _262
REMARK  113  A    between atoms: _262  and  _263
REMARK  114  A    between atoms: _266  and  _268
REMARK  115  A    between atoms: _268  and  _269
REMARK  116  A    between atoms: _268  and  _271
REMARK  117  A    between atoms: _271  and  _272
REMARK  118  A    between atoms: _277  and  _278
REMARK  119  A    between atoms: _280  and  _282
REMARK  120  A    between atoms: _282  and  _283
REMARK  121  A    between atoms: _282  and  _285
REMARK  122  A    between atoms: _285  and  _286
REMARK  123  A    between atoms: _291  and  _292
REMARK  124  A    between atoms: _294  and  _296
REMARK  125  A    between atoms: _296  and  _297
REMARK  126  A    between atoms: _296  and  _299
REMARK  127  A    between atoms: _299  and  _300
REMARK  128  A    between atoms: _306  and  _308
REMARK  129  A    between atoms: _308  and  _309
REMARK  130  A    between atoms: _308  and  _311
REMARK  131  A    between atoms: _311  and  _312
REMARK  132  A    between atoms: _315  and  _317
REMARK  133  A    between atoms: _317  and  _318
REMARK  134  A    between atoms: _321  and  _323
REMARK  135  A    between atoms: _323  and  _324
REMARK  136  A    between atoms: _327  and  _329
REMARK  137  A    between atoms: _329  and  _330
REMARK  138  A    between atoms: _329  and  _332
REMARK  139  A    between atoms: _332  and  _333
REMARK                            x       y       z     vdW  Elec       q    Type
REMARK                         _______ _______ _______ _____ _____    ______ ____
ROOT
ATOM      1  C   ILE A   1      -0.008  17.579  -0.508  0.00  0.00    +0.238 C 
ATOM      2  N   GLN A   2      -0.503  16.895   0.509  0.00  0.00    -0.298 N 
ATOM      3  H   GLN A   2       0.068  16.787   1.371  0.00  0.00    +0.150 HD
ATOM      4  O   ILE A   1      -0.607  17.705  -1.567  0.00  0.00    -0.274 OA
ENDROOT
BRANCH   1   5
ATOM      5  CA  ILE A   1       1.389  18.186  -0.334  0.00  0.00    +0.145 C 
BRANCH   5   6
ATOM      6  N   ILE A   1       1.496  19.039   0.847  0.00  0.00    -0.238 NA
ATOM      7  H   ILE A   1       2.117  18.762   1.634  0.00  0.00    +0.142 HD
ENDBRANCH   5   6
BRANCH   5   8
ATOM      8  CB  ILE A   1       2.453  17.096  -0.314  0.00  0.00    +0.025 C 
ATOM      9  CG2 ILE A   1       2.297  16.189  -1.493  0.00  0.00    +0.002 C 
BRANCH   8  10
ATOM     10  CG1 ILE A   1       3.821  17.732  -0.399  0.00  0.00    +0.002 C 
ATOM     11  CD1 ILE A   1       4.952  16.762  -0.048  0.00  0.00    +0.000 C 
ENDBRANCH   8  10
ENDBRANCH   5   8
ENDBRANCH   1   5
BRANCH   2  12
ATOM     12  CA  GLN A   2      -1.823  16.290   0.455  0.00  0.00    +0.137 C 
BRANCH  12  13
ATOM     13  C   GLN A   2      -2.888  17.299  -0.027  0.00  0.00    +0.227 C 
ATOM     14  O   GLN A   2      -3.876  16.914  -0.662  0.00  0.00    -0.286 OA
ENDBRANCH  12  13
BRANCH  12  15
ATOM     15  CB  GLN A   2      -2.198  15.762   1.834  0.00  0.00    +0.037 C 
BRANCH  15  16
ATOM     16  CG  GLN A   2      -1.519  14.475   2.233  0.00  0.00    +0.087 C 
BRANCH  16  17
ATOM     17  CD  GLN A   2      -1.664  14.159   3.704  0.00  0.00    +0.219 C 
ATOM     18  NE2 GLN A   2      -1.959  15.174   4.518  0.00  0.00    -0.329 N 
ATOM     19 HE21 GLN A   2      -2.045  15.012   5.542  0.00  0.00    +0.145 HD
ATOM     20 HE22 GLN A   2      -2.103  16.128   4.129  0.00  0.00    +0.145 HD
ATOM     21  OE1 GLN A   2      -1.482  13.002   4.112  0.00  0.00    -0.275 OA
ENDBRANCH  16  17
ENDBRANCH  15  16
ENDBRANCH  12  15
ENDBRANCH   2  12
TORSDOF 9
REMARK  Name = ../refined-set-2016/1td7/1td7_pocket.pdb
REMARK  139 active torsions:
REMARK  status: ('A' for Active; 'I' for Inactive)
REMARK    1  A    between atoms: _1  and  _3
REMARK    2  A    between atoms: _3  and  _4
REMARK    3  A    between atoms: _3  and  _6
REMARK    4  A    between atoms: _6  and  _7
REMARK    5  A    between atoms: _10  and  _12
REMARK    6  A    between atoms: _12  and  _13
REMARK    7  A    between atoms: _12  and  _15
REMARK    8  A    between atoms: _15  and  _16
REMARK    9  A    between atoms: _21  and  _22
REMARK   10  A    between atoms: _24  and  _26
REMARK   11  A    between atoms: _26  and  _27
REMARK   12  A    between atoms: _26  and  _29
REMARK   13  A    between atoms: _29  and  _30
REMARK   14  A    between atoms: _36  and  _38
REMARK   15  A    between atoms: _38  and  _39
REMARK   16  A    between atoms: _38  and  _41
REMARK   17  A    between atoms: _41  and  _42
REMARK   18  A    between atoms: _42  and  _43
REMARK   19  A    between atoms: _43  and  _44
REMARK   20  A    between atoms: _44  and  _45
REMARK   21  A    between atoms: _49  and  _51
REMARK   22  A    between atoms: _51  and  _52
REMARK   23  A    between atoms: _51  and  _54
REMARK   24  A    between atoms: _54  and  _55
REMARK   25  A    between atoms: _60  and  _62
REMARK   26  A    between atoms: _62  and  _63
REMARK   27  A    between atoms: _62  and  _65
REMARK   28  A    between atoms: _65  and  _66
REMARK   29  A    between atoms: _69  and  _71
REMARK   30  A    between atoms: _71  and  _72
REMARK   31  A    between atoms: _71  and  _74
REMARK   32  A    between atoms: _74  and  _75
REMARK   33  A    between atoms: _75  and  _76
REMARK   34  A    between atoms: _81  and  _83
REMARK   35  A    between atoms: _83  and  _84
REMARK   36  A    between atoms: _83  and  _86
REMARK   37  A    between atoms: _86  and  _87
REMARK   38  A    between atoms: _89  and  _91
REMARK   39  A    between atoms: _91  and  _92
REMARK   40  A    between atoms: _91  and  _94
REMARK   41  A    between atoms: _94  and  _95
REMARK   42  A    between atoms: _105  and  _107
REMARK   43  A    between atoms: _107  and  _108
REMARK   44  A    between atoms: _107  and  _110
REMARK   45  A    between atoms: _110  and  _111
REMARK   46  A    between atoms: _111  and  _112
REMARK   47  A    between atoms: _117  and  _119
REMARK   48  A    between atoms: _119  and  _120
REMARK   49  A    between atoms: _119  and  _122
REMARK   50  A    between atoms: _122  and  _123
REMARK   51  A    between atoms: _126  and  _128
REMARK   52  A    between atoms: _128  and  _129
REMARK   53  A    between atoms: _128  and  _131
REMARK   54  A    between atoms: _131  and  _132
REMARK   55  A    between atoms: _138  and  _140
REMARK   56  A    between atoms: _140  and  _141
REMARK   57  A    between atoms: _144  and  _146
REMARK   58  A    between atoms: _146  and  _147
REMARK   59  A    between atoms: _146  and  _149
REMARK   60  A    between atoms: _149  and  _150
REMARK   61  A    between atoms: _153  and  _155
REMARK   62  A    between atoms: _155  and  _156
REMARK   63  A    between atoms: _155  and  _158
REMARK   64  A    between atoms: _158  and  _159
REMARK   65  A    between atoms: _164  and  _165
REMARK   66  A    between atoms: _167  and  _169
REMARK   67  A    between atoms: _169  and  _170
REMARK   68  A    between atoms: _169  and  _172
REMARK   69  A    between atoms: _172  and  _173
REMARK   70  A    between atoms: _178  and  _179
REMARK   71  A    between atoms: _181  and  _183
REMARK   72  A    between atoms: _183  and  _184
REMARK   73  A    between atoms: _183  and  _186
REMARK   74  A    between atoms: _186  and  _187
REMARK   75  A    between atoms: _187  and  _233
REMARK   76  A    between atoms: _188  and  _190
REMARK   77  A    between atoms: _190  and  _191
REMARK   78  A    between atoms: _191  and  _192
REMARK   79  A    between atoms: _191  and  _193
REMARK   80  A    between atoms: _192  and  CA_339
REMARK   81  A    between atoms: _193  and  _195
REMARK   82  A    between atoms: _195  and  _196
REMARK   83  A    between atoms: _195  and  _198
REMARK   84  A    between atoms: _198  and  _199
REMARK   85  A    between atoms: _199  and  _200
REMARK   86  A    between atoms: _200  and  _201
REMARK   87  A    between atoms: _201  and  _202
REMARK   88  A    between atoms: _206  and  _208
REMARK   89  A    between atoms: _208  and  _209
REMARK   90  A    between atoms: _211  and  _213
REMARK   91  A    between atoms: _213  and  _214
REMARK   92  A    between atoms: _213  and  _216
REMARK   93  A    between atoms: _216  and  _217
REMARK   94  A    between atoms: _220  and  _222
REMARK   95  A    between atoms: _222  and  _223
REMARK   96  A    between atoms: _222  and  _225
REMARK   97  A    between atoms: _227  and  _229
REMARK   98  A    between atoms: _229  and  _230
REMARK   99  A    between atoms: _229  and  _232
REMARK  100  A    between atoms: _232  and  _233
REMARK  101  A    between atoms: _234  and  _236
REMARK  102  A    between atoms: _236  and  _237
REMARK  103  A    between atoms: _236  and  _239
REMARK  104  A    between atoms: _239  and  _240
REMARK  105  A    between atoms: _240  and  _241
REMARK  106  A    between atoms: _246  and  _248
REMARK  107  A    between atoms: _248  and  _249
REMARK  108  A    between atoms: _248  and  _251
REMARK  109  A    between atoms: _251  and  _252
REMARK  110  A    between atoms: _257  and  _259
REMARK  111  A    between atoms: _259  and  _260
REMARK  112  A    between atoms: _259  and  _262
REMARK  113  A    between atoms: _262  and  _263
REMARK  114  A    between atoms: _266  and  _268
REMARK  115  A    between atoms: _268  and  _269
REMARK  116  A    between atoms: _268  and  _271
REMARK  117  A    between atoms: _271  and  _272
REMARK  118  A    between atoms: _277  and  _278
REMARK  119  A    between atoms: _280  and  _282
REMARK  120  A    between atoms: _282  and  _283
REMARK  121  A    between atoms: _282  and  _285
REMARK  122  A    between atoms: _285  and  _286
REMARK  123  A    between atoms: _291  and  _292
REMARK  124  A    between atoms: _294  and  _296
REMARK  125  A    between atoms: _296  and  _297
REMARK  126  A    between atoms: _296  and  _299
REMARK  127  A    between atoms: _299  and  _300
REMARK  128  A    between atoms: _306  and  _308
REMARK  129  A    between atoms: _308  and  _309
REMARK  130  A    between atoms: _308  and  _311
REMARK  131  A    between atoms: _311  and  _312
REMARK  132  A    between atoms: _315  and  _317
REMARK  133  A    between atoms: _317  and  _318
REMARK  134  A    between atoms: _321  and  _323
REMARK  135  A    between atoms: _323  and  _324
REMARK  136  A    between atoms: _327  and  _329
REMARK  137  A    between atoms: _329  and  _330
REMARK  138  A    between atoms: _329  and  _332
REMARK  139  A    between atoms: _332  and  _333
REMARK                            x       y       z     vdW  Elec       q    Type
REMARK                         _______ _______ _______ _____ _____    ______ ____
ROOT
ATOM      1  CA  ASP A   4       5.110   8.903  -3.630  0.00  0.00    +0.160 C 
ENDROOT
BRANCH   1   2
ATOM      2  C   ASP A   4       6.203   9.936  -3.807  0.00  0.00    +0.241 C 
ATOM      3  N   PHE A   5       6.266  10.889  -2.885  0.00  0.00    -0.297 N 
ATOM      4  H   PHE A   5       5.591  10.876  -2.094  0.00  0.00    +0.150 HD
ATOM      5  O   ASP A   4       6.973   9.874  -4.752  0.00  0.00    -0.273 OA
BRANCH   3   6
ATOM      6  CA  PHE A   5       7.248  11.941  -2.956  0.00  0.00    +0.153 C 
BRANCH   6   7
ATOM      7  C   PHE A   5       8.340  11.762  -1.924  0.00  0.00    +0.241 C 
ATOM      8  N   ALA A   6       8.158  10.826  -0.999  0.00  0.00    -0.297 N 
ATOM      9  H   ALA A   6       7.298  10.242  -1.033  0.00  0.00    +0.150 HD
ATOM     10  O   PHE A   5       9.347  12.442  -1.984  0.00  0.00    -0.273 OA
BRANCH   8  11
ATOM     11  CA  ALA A   6       9.126  10.597   0.057  0.00  0.00    +0.149 C 
ATOM     12  CB  ALA A   6       8.612   9.621   1.057  0.00  0.00    +0.031 C 
BRANCH  11  13
ATOM     13  C   ALA A   6      10.424  10.099  -0.430  0.00  0.00    +0.241 C 
ATOM     14  O   ALA A   6      11.392  10.507   0.104  0.00  0.00    -0.273 OA
ATOM     15  N   ASP A   7      10.436   9.175  -1.390  0.00  0.00    -0.297 N 
ATOM     16  H   ASP A   7       9.528   8.867  -1.793  0.00  0.00    +0.150 HD
BRANCH  15  17
ATOM     17  CA  ASP A   7      11.674   8.570  -1.907  0.00  0.00    +0.160 C 
BRANCH  17  18
ATOM     18  C   ASP A   7      11.586   8.494  -3.407  0.00  0.00    +0.241 C 
ATOM     19  O   ASP A   7      11.089   7.507  -3.936  0.00  0.00    -0.273 OA
ATOM     20  N   TYR A   8      12.074   9.537  -4.082  0.00  0.00    -0.298 N 
ATOM     21  H   TYR A   8      12.560  10.287  -3.550  0.00  0.00    +0.150 HD
BRANCH  20  22
ATOM     22  CA  TYR A   8      11.959   9.677  -5.536  0.00  0.00    +0.141 C 
BRANCH  22  23
ATOM     23  C   TYR A   8      13.114  10.457  -6.117  0.00  0.00    +0.227 C 
ATOM     24  O   TYR A   8      13.522  11.474  -5.575  0.00  0.00    -0.286 OA
ENDBRANCH  22  23
BRANCH  22  25
ATOM     25  CB  TYR A   8      10.662  10.410  -5.856  0.00  0.00    +0.054 C 
BRANCH  25  26
ATOM     26  CG  TYR A   8      10.390  10.652  -7.320  0.00  0.00    -0.020 A 
ATOM     27  CD2 TYR A   8       9.363   9.999  -7.959  0.00  0.00    -0.001 A 
ATOM     28  CE2 TYR A   8       9.116  10.219  -9.279  0.00  0.00    +0.036 A 
ATOM     29  CZ  TYR A   8       9.873  11.107  -9.985  0.00  0.00    +0.134 A 
ATOM     30  CE1 TYR A   8      10.905  11.771  -9.399  0.00  0.00    +0.036 A 
ATOM     31  CD1 TYR A   8      11.159  11.554  -8.066  0.00  0.00    -0.001 A 
BRANCH  29  32
ATOM     32  OH  TYR A   8       9.587  11.306 -11.308  0.00  0.00    -0.506 OA
ATOM     33  HH  TYR A   8      10.215  11.972 -11.684  0.00  0.00    +0.292 HD
ENDBRANCH  29  32
ENDBRANCH  25  26
ENDBRANCH  22  25
ENDBRANCH  20  22
ENDBRANCH  17  18
BRANCH  17  34
ATOM     34  CB  ASP A   7      11.840   7.159  -1.315  0.00  0.00    +0.143 C 
BRANCH  34  35
ATOM     35  CG  ASP A   7      12.873   6.328  -2.027  0.00  0.00    +0.367 C 
ATOM     36  OD2 ASP A   7      12.710   5.088  -2.123  0.00  0.00    -0.246 OA
ATOM     37  OD1 ASP A   7      13.894   6.872  -2.516  0.00  0.00    -0.246 OA
ENDBRANCH  34  35
ENDBRANCH  17  34
ENDBRANCH  15  17
ENDBRANCH  11  13
ENDBRANCH   8  11
ENDBRANCH   6   7
BRANCH   6  38
ATOM     38  CB  PHE A   5       6.558  13.274  -2.772  0.00  0.00    +0.055 C 
BRANCH  38  39
ATOM     39  CG  PHE A   5       5.564  13.584  -3.850  0.00  0.00    -0.020 A 
ATOM     40  CD2 PHE A   5       4.227  13.350  -3.649  0.00  0.00    -0.004 A 
ATOM     41  CE2 PHE A   5       3.311  13.657  -4.628  0.00  0.00    -0.000 A 
ATOM     42  CZ  PHE A   5       3.736  14.178  -5.838  0.00  0.00    -0.000 A 
ATOM     43  CE1 PHE A   5       5.072  14.404  -6.040  0.00  0.00    -0.000 A 
ATOM     44  CD1 PHE A   5       5.972  14.125  -5.057  0.00  0.00    -0.004 A 
ENDBRANCH  38  39
ENDBRANCH   6  38
ENDBRANCH   3   6
ENDBRANCH   1   2
BRANCH   1  47
ATOM     45  C   GLN A   3       5.351   8.730  -1.198  0.00  0.00    +0.241 C 
ATOM     46  O   GLN A   3       6.536   8.451  -1.288  0.00  0.00    -0.273 OA
ATOM     47  N   ASP A   4       4.599   8.988  -2.268  0.00  0.00    -0.297 N 
ATOM     48  H   ASP A   4       3.606   9.261  -2.125  0.00  0.00    +0.150 HD
BRANCH  45  49
ATOM     49  CA  GLN A   3       4.685   8.912   0.194  0.00  0.00    +0.149 C 
BRANCH  49  51
ATOM     50  C   TRP A   2       3.613  10.992  -0.173  0.00  0.00    +0.241 C 
ATOM     51  N   GLN A   3       3.470   9.709   0.118  0.00  0.00    -0.297 N 
ATOM     52  H   GLN A   3       2.533   9.290   0.285  0.00  0.00    +0.150 HD
ATOM     53  O   TRP A   2       4.707  11.461  -0.427  0.00  0.00    -0.273 OA
BRANCH  50  54
ATOM     54  CA  TRP A   2       2.401  11.904  -0.166  0.00  0.00    +0.153 C 
BRANCH  54  56
ATOM     55  C   SER A   1       0.886  10.547  -1.481  0.00  0.00    +0.241 C 
ATOM     56  N   TRP A   2       1.114  11.238  -0.373  0.00  0.00    -0.297 N 
ATOM     57  H   TRP A   2       0.374  11.307   0.354  0.00  0.00    +0.150 HD
ATOM     58  O   SER A   1       1.724  10.431  -2.370  0.00  0.00    -0.274 OA
BRANCH  55  59
ATOM     59  CA  SER A   1      -0.466   9.888  -1.639  0.00  0.00    +0.174 C 
BRANCH  59  60
ATOM     60  N   SER A   1      -0.901  10.097  -3.020  0.00  0.00    -0.236 NA
ATOM     61  H   SER A   1      -1.092   9.272  -3.624  0.00  0.00    +0.142 HD
ENDBRANCH  59  60
BRANCH  59  62
ATOM     62  CB  SER A   1      -0.362   8.390  -1.332  0.00  0.00    +0.163 C 
BRANCH  62  63
ATOM     63  OG  SER A   1       0.377   8.147  -0.139  0.00  0.00    -0.380 OA
ATOM     64  H   SER A   1       0.423   7.172   0.026  0.00  0.00    +0.211 HD
ENDBRANCH  62  63
ENDBRANCH  59  62
ENDBRANCH  55  59
ENDBRANCH  54  56
BRANCH  54  65
ATOM     65  CB  TRP A   2       2.423  12.642   1.167  0.00  0.00    +0.057 C 
BRANCH  65  66
ATOM     66  CG  TRP A   2       2.285  11.733   2.330  0.00  0.00    -0.002 A 
ATOM     67  CD2 TRP A   2       3.329  11.125   3.092  0.00  0.00    +0.013 A 
ATOM     68  CE2 TRP A   2       2.716  10.369   4.116  0.00  0.00    +0.056 A 
ATOM     69  CZ2 TRP A   2       3.439   9.620   5.037  0.00  0.00    +0.017 A 
ATOM     70  CH2 TRP A   2       4.801   9.637   4.931  0.00  0.00    +0.001 A 
ATOM     71  CZ3 TRP A   2       5.442  10.377   3.933  0.00  0.00    +0.000 A 
ATOM     72  NE1 TRP A   2       1.363  10.524   3.981  0.00  0.00    -0.352 N 
ATOM     73  HE1 TRP A   2       0.640  10.089   4.589  0.00  0.00    +0.166 HD
ATOM     74  CE3 TRP A   2       4.716  11.123   3.006  0.00  0.00    +0.001 A 
ATOM     75  CD1 TRP A   2       1.117  11.349   2.911  0.00  0.00    +0.068 A 
ENDBRANCH  65  66
ENDBRANCH  54  65
ENDBRANCH  50  54
ENDBRANCH  49  51
BRANCH  49  76
ATOM     76  CB  GLN A   3       4.508   7.641   1.080  0.00  0.00    +0.039 C 
BRANCH  76  77
ATOM     77  CG  GLN A   3       4.065   6.276   0.491  0.00  0.00    +0.087 C 
BRANCH  77  78
ATOM     78  CD  GLN A   3       3.948   5.138   1.598  0.00  0.00    +0.219 C 
ATOM     79  NE2 GLN A   3       3.550   5.524   2.830  0.00  0.00    -0.329 N 
ATOM     80 HE21 GLN A   3       3.434   4.817   3.584  0.00  0.00    +0.145 HD
ATOM     81 HE22 GLN A   3       3.360   6.528   3.024  0.00  0.00    +0.145 HD
ATOM     82  OE1 GLN A   3       4.190   3.942   1.312  0.00  0.00    -0.275 OA
ENDBRANCH  77  78
ENDBRANCH  76  77
ENDBRANCH  49  76
ENDBRANCH  45  49
ENDBRANCH   1  47
BRANCH   1  83
ATOM     83  CB  ASP A   4       4.001   9.190  -4.661  0.00  0.00    +0.143 C 
BRANCH  83  84
ATOM     84  CG  ASP A   4       2.933   8.090  -4.719  0.00  0.00    +0.367 C 
ATOM     85  OD2 ASP A   4       2.697   7.404  -3.696  0.00  0.00    -0.246 OA
ATOM     86  OD1 ASP A   4       2.275   7.840  -5.749  0.00  0.00    -0.246 OA
ENDBRANCH  83  84
ENDBRANCH   1  83
TORSDOF 32
REMARK  Name = ../refined-set-2016/1td7/1td7_pocket.pdb
REMARK  139 active torsions:
REMARK  status: ('A' for Active; 'I' for Inactive)
REMARK    1  A    between atoms: _1  and  _3
REMARK    2  A    between atoms: _3  and  _4
REMARK    3  A    between atoms: _3  and  _6
REMARK    4  A    between atoms: _6  and  _7
REMARK    5  A    between atoms: _10  and  _12
REMARK    6  A    between atoms: _12  and  _13
REMARK    7  A    between atoms: _12  and  _15
REMARK    8  A    between atoms: _15  and  _16
REMARK    9  A    between atoms: _21  and  _22
REMARK   10  A    between atoms: _24  and  _26
REMARK   11  A    between atoms: _26  and  _27
REMARK   12  A    between atoms: _26  and  _29
REMARK   13  A    between atoms: _29  and  _30
REMARK   14  A    between atoms: _36  and  _38
REMARK   15  A    between atoms: _38  and  _39
REMARK   16  A    between atoms: _38  and  _41
REMARK   17  A    between atoms: _41  and  _42
REMARK   18  A    between atoms: _42  and  _43
REMARK   19  A    between atoms: _43  and  _44
REMARK   20  A    between atoms: _44  and  _45
REMARK   21  A    between atoms: _49  and  _51
REMARK   22  A    between atoms: _51  and  _52
REMARK   23  A    between atoms: _51  and  _54
REMARK   24  A    between atoms: _54  and  _55
REMARK   25  A    between atoms: _60  and  _62
REMARK   26  A    between atoms: _62  and  _63
REMARK   27  A    between atoms: _62  and  _65
REMARK   28  A    between atoms: _65  and  _66
REMARK   29  A    between atoms: _69  and  _71
REMARK   30  A    between atoms: _71  and  _72
REMARK   31  A    between atoms: _71  and  _74
REMARK   32  A    between atoms: _74  and  _75
REMARK   33  A    between atoms: _75  and  _76
REMARK   34  A    between atoms: _81  and  _83
REMARK   35  A    between atoms: _83  and  _84
REMARK   36  A    between atoms: _83  and  _86
REMARK   37  A    between atoms: _86  and  _87
REMARK   38  A    between atoms: _89  and  _91
REMARK   39  A    between atoms: _91  and  _92
REMARK   40  A    between atoms: _91  and  _94
REMARK   41  A    between atoms: _94  and  _95
REMARK   42  A    between atoms: _105  and  _107
REMARK   43  A    between atoms: _107  and  _108
REMARK   44  A    between atoms: _107  and  _110
REMARK   45  A    between atoms: _110  and  _111
REMARK   46  A    between atoms: _111  and  _112
REMARK   47  A    between atoms: _117  and  _119
REMARK   48  A    between atoms: _119  and  _120
REMARK   49  A    between atoms: _119  and  _122
REMARK   50  A    between atoms: _122  and  _123
REMARK   51  A    between atoms: _126  and  _128
REMARK   52  A    between atoms: _128  and  _129
REMARK   53  A    between atoms: _128  and  _131
REMARK   54  A    between atoms: _131  and  _132
REMARK   55  A    between atoms: _138  and  _140
REMARK   56  A    between atoms: _140  and  _141
REMARK   57  A    between atoms: _144  and  _146
REMARK   58  A    between atoms: _146  and  _147
REMARK   59  A    between atoms: _146  and  _149
REMARK   60  A    between atoms: _149  and  _150
REMARK   61  A    between atoms: _153  and  _155
REMARK   62  A    between atoms: _155  and  _156
REMARK   63  A    between atoms: _155  and  _158
REMARK   64  A    between atoms: _158  and  _159
REMARK   65  A    between atoms: _164  and  _165
REMARK   66  A    between atoms: _167  and  _169
REMARK   67  A    between atoms: _169  and  _170
REMARK   68  A    between atoms: _169  and  _172
REMARK   69  A    between atoms: _172  and  _173
REMARK   70  A    between atoms: _178  and  _179
REMARK   71  A    between atoms: _181  and  _183
REMARK   72  A    between atoms: _183  and  _184
REMARK   73  A    between atoms: _183  and  _186
REMARK   74  A    between atoms: _186  and  _187
REMARK   75  A    between atoms: _187  and  _233
REMARK   76  A    between atoms: _188  and  _190
REMARK   77  A    between atoms: _190  and  _191
REMARK   78  A    between atoms: _191  and  _192
REMARK   79  A    between atoms: _191  and  _193
REMARK   80  A    between atoms: _192  and  CA_339
REMARK   81  A    between atoms: _193  and  _195
REMARK   82  A    between atoms: _195  and  _196
REMARK   83  A    between atoms: _195  and  _198
REMARK   84  A    between atoms: _198  and  _199
REMARK   85  A    between atoms: _199  and  _200
REMARK   86  A    between atoms: _200  and  _201
REMARK   87  A    between atoms: _201  and  _202
REMARK   88  A    between atoms: _206  and  _208
REMARK   89  A    between atoms: _208  and  _209
REMARK   90  A    between atoms: _211  and  _213
REMARK   91  A    between atoms: _213  and  _214
REMARK   92  A    between atoms: _213  and  _216
REMARK   93  A    between atoms: _216  and  _217
REMARK   94  A    between atoms: _220  and  _222
REMARK   95  A    between atoms: _222  and  _223
REMARK   96  A    between atoms: _222  and  _225
REMARK   97  A    between atoms: _227  and  _229
REMARK   98  A    between atoms: _229  and  _230
REMARK   99  A    between atoms: _229  and  _232
REMARK  100  A    between atoms: _232  and  _233
REMARK  101  A    between atoms: _234  and  _236
REMARK  102  A    between atoms: _236  and  _237
REMARK  103  A    between atoms: _236  and  _239
REMARK  104  A    between atoms: _239  and  _240
REMARK  105  A    between atoms: _240  and  _241
REMARK  106  A    between atoms: _246  and  _248
REMARK  107  A    between atoms: _248  and  _249
REMARK  108  A    between atoms: _248  and  _251
REMARK  109  A    between atoms: _251  and  _252
REMARK  110  A    between atoms: _257  and  _259
REMARK  111  A    between atoms: _259  and  _260
REMARK  112  A    between atoms: _259  and  _262
REMARK  113  A    between atoms: _262  and  _263
REMARK  114  A    between atoms: _266  and  _268
REMARK  115  A    between atoms: _268  and  _269
REMARK  116  A    between atoms: _268  and  _271
REMARK  117  A    between atoms: _271  and  _272
REMARK  118  A    between atoms: _277  and  _278
REMARK  119  A    between atoms: _280  and  _282
REMARK  120  A    between atoms: _282  and  _283
REMARK  121  A    between atoms: _282  and  _285
REMARK  122  A    between atoms: _285  and  _286
REMARK  123  A    between atoms: _291  and  _292
REMARK  124  A    between atoms: _294  and  _296
REMARK  125  A    between atoms: _296  and  _297
REMARK  126  A    between atoms: _296  and  _299
REMARK  127  A    between atoms: _299  and  _300
REMARK  128  A    between atoms: _306  and  _308
REMARK  129  A    between atoms: _308  and  _309
REMARK  130  A    between atoms: _308  and  _311
REMARK  131  A    between atoms: _311  and  _312
REMARK  132  A    between atoms: _315  and  _317
REMARK  133  A    between atoms: _317  and  _318
REMARK  134  A    between atoms: _321  and  _323
REMARK  135  A    between atoms: _323  and  _324
REMARK  136  A    between atoms: _327  and  _329
REMARK  137  A    between atoms: _329  and  _330
REMARK  138  A    between atoms: _329  and  _332
REMARK  139  A    between atoms: _332  and  _333
REMARK                            x       y       z     vdW  Elec       q    Type
REMARK                         _______ _______ _______ _____ _____    ______ ____
ROOT
ATOM      1  C   UNK A   2      13.165  13.969  -2.968  0.00  0.00    +0.000 C 
ENDROOT
BRANCH   1   4
ATOM      2  C   UNK A   2      15.441  14.577  -3.334  0.00  0.00    +0.000 C 
ATOM      3  O   UNK A   2      15.505  14.881  -2.159  0.00  0.00    +0.000 OA
ATOM      4  N   UNK A   2      14.329  14.101  -3.834  0.00  0.00    +0.000 N 
ATOM      5  H   UNK A   2      14.277  13.821  -4.834  0.00  0.00    +0.000 HD
BRANCH   2   6
ATOM      6  C   UNK A   2      16.657  14.721  -4.256  0.00  0.00    +0.000 C 
BRANCH   6   7
ATOM      7  N   UNK A   2      16.766  13.700  -5.296  0.00  0.00    +0.000 NA
ATOM      8  H   UNK A   2      16.055  13.633  -6.052  0.00  0.00    +0.000 HD
ENDBRANCH   6   7
BRANCH   6   9
ATOM      9  C   UNK A   2      16.771  16.142  -4.852  0.00  0.00    +0.000 C 
BRANCH   9  10
ATOM     10  C   UNK A   2      18.190  16.450  -5.311  0.00  0.00    +0.000 A 
ATOM     11  C   UNK A   2      19.119  17.070  -4.465  0.00  0.00    +0.000 A 
ATOM     12  C   UNK A   2      20.441  17.320  -4.879  0.00  0.00    +0.000 A 
ATOM     13  C   UNK A   2      20.833  16.956  -6.136  0.00  0.00    +0.000 A 
ATOM     14  C   UNK A   2      19.948  16.338  -6.981  0.00  0.00    +0.000 A 
ATOM     15  C   UNK A   2      18.626  16.076  -6.563  0.00  0.00    +0.000 A 
BRANCH  13  16
ATOM     16  O   UNK A   2      22.098  17.186  -6.585  0.00  0.00    +0.000 OA
ATOM     17  H   UNK A   2      22.183  16.852  -7.513  0.00  0.00    +0.000 HD
ENDBRANCH  13  16
ENDBRANCH   9  10
ENDBRANCH   6   9
ENDBRANCH   2   6
ENDBRANCH   1   4
BRANCH   1  18
ATOM     18  C   UNK A   2      13.357  12.946  -1.842  0.00  0.00    +0.000 C 
ATOM     19  N   UNK A   0      13.426  13.451  -0.617  0.00  0.00    +0.000 N 
ATOM     20  H   UNK A   0      13.358  14.482  -0.496  0.00  0.00    +0.000 HD
ATOM     21  O   UNK A   2      13.374  11.737  -2.075  0.00  0.00    +0.000 OA
BRANCH  19  22
ATOM     22  C   UNK A   0      13.592  12.623   0.555  0.00  0.00    +0.000 C 
BRANCH  22  23
ATOM     23  C   UNK A   0      14.961  12.887   1.072  0.00  0.00    +0.000 C 
BRANCH  23  24
ATOM     24  N   CYS A   1      15.749  11.848   1.219  0.00  0.00    +0.000 NA
ATOM     25  H   CYS A   1      15.387  10.894   1.019  0.00  0.00    +0.000 HD
BRANCH  24  26
ATOM     26  CA  CYS A   1      17.102  12.017   1.652  0.00  0.00    +0.000 C 
BRANCH  26  27
ATOM     27  C   CYS A   1      17.932  12.317   0.413  0.00  0.00    +0.000 C 
ATOM     28  N   UNK A   2      19.199  12.565   0.668  0.00  0.00    +0.000 N 
ATOM     29  H   UNK A   2      19.532  12.607   1.652  0.00  0.00    +0.000 HD
ATOM     30  O   CYS A   1      17.461  12.324  -0.749  0.00  0.00    +0.000 OA
BRANCH  28  31
ATOM     31  C   UNK A   2      20.126  12.779  -0.415  0.00  0.00    +0.000 C 
BRANCH  31  32
ATOM     32  C   UNK A   2      20.094  14.177  -0.907  0.00  0.00    +0.000 C 
ATOM     33  O   UNK A   2      19.076  14.867  -0.876  0.00  0.00    +0.000 OA
ENDBRANCH  31  32
ENDBRANCH  28  31
ENDBRANCH  26  27
BRANCH  26  34
ATOM     34  CB  CYS A   1      17.614  10.738   2.306  0.00  0.00    +0.000 C 
BRANCH  34  35
ATOM     35  CG  CYS A   1      17.278   9.463   1.538  0.00  0.00    +0.000 C 
BRANCH  35  36
ATOM     36  CD  CYS A   1      18.254   8.325   1.839  0.00  0.00    +0.000 C 
BRANCH  36  37
ATOM     37  CE  CYS A   1      18.100   7.190   0.816  0.00  0.00    +0.000 C 
BRANCH  37  38
ATOM     38  NZ  CYS A   1      16.755   6.547   0.822  0.00  0.00    +0.000 N 
ATOM     39  HZ1 CYS A   1      16.570   6.141   1.762  0.00  0.00    +0.000 HD
ATOM     40  HZ2 CYS A   1      16.030   7.260   0.602  0.00  0.00    +0.000 HD
ATOM     41  HZ3 CYS A   1      16.729   5.793   0.106  0.00  0.00    +0.000 HD
ENDBRANCH  37  38
ENDBRANCH  36  37
ENDBRANCH  35  36
ENDBRANCH  34  35
ENDBRANCH  26  34
ENDBRANCH  24  26
ENDBRANCH  23  24
BRANCH  23  42
ATOM     42  O   UNK A   0      15.306  14.021   1.308  0.00  0.00    +0.000 OA
BRANCH  42  43
ATOM     43 CA   UNK A   0      16.778  15.378   0.243  0.00  0.00    +0.000 Ca
ATOM     44  O   UNK A   0      18.496  15.257   1.840  0.00  0.00    +0.000 OA
ENDBRANCH  42  43
ENDBRANCH  23  42
ENDBRANCH  22  23
ENDBRANCH  19  22
ENDBRANCH   1  18
BRANCH   1  45
ATOM     45  C   UNK A   2      11.949  13.546  -3.771  0.00  0.00    +0.000 C 
BRANCH  45  46
ATOM     46  S   UNK A   2      11.713  14.444  -5.273  0.00  0.00    +0.000 S 
BRANCH  46  47
ATOM     47  S   UNK A   2      11.444  16.350  -4.619  0.00  0.00    +0.000 S 
BRANCH  47  48
ATOM     48  C   UNK A   2      13.138  17.028  -4.485  0.00  0.00    +0.000 C 
BRANCH  48  49
ATOM     49  C   UNK A   2      13.187  18.547  -4.679  0.00  0.00    +0.000 C 
BRANCH  49  50
ATOM     50  N   UNK A   2      12.596  18.928  -5.944  0.00  0.00    +0.000 N 
ATOM     51  C   CYS A   1      12.245  20.177  -6.145  0.00  0.00    +0.000 C 
ATOM     52  O   CYS A   1      12.407  21.035  -5.290  0.00  0.00    +0.000 OA
ATOM     53  H   UNK A   2      12.450  18.217  -6.689  0.00  0.00    +0.000 HD
BRANCH  51  54
ATOM     54  CA  CYS A   1      11.637  20.508  -7.519  0.00  0.00    +0.000 C 
BRANCH  54  55
ATOM     55  N   CYS A   1      12.431  19.852  -8.528  0.00  0.00    +0.000 NA
ATOM     56  H   CYS A   1      11.986  19.158  -9.162  0.00  0.00    +0.000 HD
ENDBRANCH  54  55
BRANCH  54  57
ATOM     57  CB  CYS A   1      10.185  20.000  -7.554  0.00  0.00    +0.000 C 
ATOM     58  SG  CYS A   1       9.145  20.469  -8.944  0.00  0.00    +0.000 S 
ENDBRANCH  54  57
ENDBRANCH  51  54
ENDBRANCH  49  50
BRANCH  49  59
ATOM     59  C   UNK A   2      14.602  19.093  -4.535  0.00  0.00    +0.000 C 
ATOM     60  O   UNK A   2      15.016  19.442  -3.450  0.00  0.00    +0.000 OA
ATOM     61  N   GLN A   3      15.343  19.219  -5.619  0.00  0.00    +0.000 N 
ATOM     62  H   GLN A   3      14.969  18.955  -6.553  0.00  0.00    +0.000 HD
BRANCH  61  63
ATOM     63  CA  GLN A   3      16.687  19.733  -5.478  0.00  0.00    +0.000 C 
BRANCH  63  64
ATOM     64  C   GLN A   3      16.626  21.154  -4.936  0.00  0.00    +0.000 C 
ATOM     65  O   GLN A   3      17.315  21.505  -3.985  0.00  0.00    +0.000 OA
ENDBRANCH  63  64
BRANCH  63  66
ATOM     66  CB  GLN A   3      17.411  19.717  -6.812  0.00  0.00    +0.000 C 
BRANCH  66  67
ATOM     67  CG  GLN A   3      18.753  20.437  -6.788  0.00  0.00    +0.000 C 
BRANCH  67  68
ATOM     68  CD  GLN A   3      19.365  20.560  -8.177  0.00  0.00    +0.000 C 
ATOM     69  NE2 GLN A   3      20.545  19.943  -8.362  0.00  0.00    +0.000 N 
ATOM     70 HE21 GLN A   3      20.992  19.429  -7.576  0.00  0.00    +0.000 HD
ATOM     71 HE22 GLN A   3      21.011  19.980  -9.291  0.00  0.00    +0.000 HD
ATOM     72  OE1 GLN A   3      18.771  21.198  -9.082  0.00  0.00    +0.000 OA
ENDBRANCH  67  68
ENDBRANCH  66  67
ENDBRANCH  63  66
ENDBRANCH  61  63
ENDBRANCH  49  59
ENDBRANCH  48  49
ENDBRANCH  47  48
ENDBRANCH  46  47
ENDBRANCH  45  46
ENDBRANCH   1  45
TORSDOF 36
REMARK  Name = ../refined-set-2016/1td7/1td7_pocket.pdb
REMARK  139 active torsions:
REMARK  status: ('A' for Active; 'I' for Inactive)
REMARK    1  A    between atoms: _1  and  _3
REMARK    2  A    between atoms: _3  and  _4
REMARK    3  A    between atoms: _3  and  _6
REMARK    4  A    between atoms: _6  and  _7
REMARK    5  A    between atoms: _10  and  _12
REMARK    6  A    between atoms: _12  and  _13
REMARK    7  A    between atoms: _12  and  _15
REMARK    8  A    between atoms: _15  and  _16
REMARK    9  A    between atoms: _21  and  _22
REMARK   10  A    between atoms: _24  and  _26
REMARK   11  A    between atoms: _26  and  _27
REMARK   12  A    between atoms: _26  and  _29
REMARK   13  A    between atoms: _29  and  _30
REMARK   14  A    between atoms: _36  and  _38
REMARK   15  A    between atoms: _38  and  _39
REMARK   16  A    between atoms: _38  and  _41
REMARK   17  A    between atoms: _41  and  _42
REMARK   18  A    between atoms: _42  and  _43
REMARK   19  A    between atoms: _43  and  _44
REMARK   20  A    between atoms: _44  and  _45
REMARK   21  A    between atoms: _49  and  _51
REMARK   22  A    between atoms: _51  and  _52
REMARK   23  A    between atoms: _51  and  _54
REMARK   24  A    between atoms: _54  and  _55
REMARK   25  A    between atoms: _60  and  _62
REMARK   26  A    between atoms: _62  and  _63
REMARK   27  A    between atoms: _62  and  _65
REMARK   28  A    between atoms: _65  and  _66
REMARK   29  A    between atoms: _69  and  _71
REMARK   30  A    between atoms: _71  and  _72
REMARK   31  A    between atoms: _71  and  _74
REMARK   32  A    between atoms: _74  and  _75
REMARK   33  A    between atoms: _75  and  _76
REMARK   34  A    between atoms: _81  and  _83
REMARK   35  A    between atoms: _83  and  _84
REMARK   36  A    between atoms: _83  and  _86
REMARK   37  A    between atoms: _86  and  _87
REMARK   38  A    between atoms: _89  and  _91
REMARK   39  A    between atoms: _91  and  _92
REMARK   40  A    between atoms: _91  and  _94
REMARK   41  A    between atoms: _94  and  _95
REMARK   42  A    between atoms: _105  and  _107
REMARK   43  A    between atoms: _107  and  _108
REMARK   44  A    between atoms: _107  and  _110
REMARK   45  A    between atoms: _110  and  _111
REMARK   46  A    between atoms: _111  and  _112
REMARK   47  A    between atoms: _117  and  _119
REMARK   48  A    between atoms: _119  and  _120
REMARK   49  A    between atoms: _119  and  _122
REMARK   50  A    between atoms: _122  and  _123
REMARK   51  A    between atoms: _126  and  _128
REMARK   52  A    between atoms: _128  and  _129
REMARK   53  A    between atoms: _128  and  _131
REMARK   54  A    between atoms: _131  and  _132
REMARK   55  A    between atoms: _138  and  _140
REMARK   56  A    between atoms: _140  and  _141
REMARK   57  A    between atoms: _144  and  _146
REMARK   58  A    between atoms: _146  and  _147
REMARK   59  A    between atoms: _146  and  _149
REMARK   60  A    between atoms: _149  and  _150
REMARK   61  A    between atoms: _153  and  _155
REMARK   62  A    between atoms: _155  and  _156
REMARK   63  A    between atoms: _155  and  _158
REMARK   64  A    between atoms: _158  and  _159
REMARK   65  A    between atoms: _164  and  _165
REMARK   66  A    between atoms: _167  and  _169
REMARK   67  A    between atoms: _169  and  _170
REMARK   68  A    between atoms: _169  and  _172
REMARK   69  A    between atoms: _172  and  _173
REMARK   70  A    between atoms: _178  and  _179
REMARK   71  A    between atoms: _181  and  _183
REMARK   72  A    between atoms: _183  and  _184
REMARK   73  A    between atoms: _183  and  _186
REMARK   74  A    between atoms: _186  and  _187
REMARK   75  A    between atoms: _187  and  _233
REMARK   76  A    between atoms: _188  and  _190
REMARK   77  A    between atoms: _190  and  _191
REMARK   78  A    between atoms: _191  and  _192
REMARK   79  A    between atoms: _191  and  _193
REMARK   80  A    between atoms: _192  and  CA_339
REMARK   81  A    between atoms: _193  and  _195
REMARK   82  A    between atoms: _195  and  _196
REMARK   83  A    between atoms: _195  and  _198
REMARK   84  A    between atoms: _198  and  _199
REMARK   85  A    between atoms: _199  and  _200
REMARK   86  A    between atoms: _200  and  _201
REMARK   87  A    between atoms: _201  and  _202
REMARK   88  A    between atoms: _206  and  _208
REMARK   89  A    between atoms: _208  and  _209
REMARK   90  A    between atoms: _211  and  _213
REMARK   91  A    between atoms: _213  and  _214
REMARK   92  A    between atoms: _213  and  _216
REMARK   93  A    between atoms: _216  and  _217
REMARK   94  A    between atoms: _220  and  _222
REMARK   95  A    between atoms: _222  and  _223
REMARK   96  A    between atoms: _222  and  _225
REMARK   97  A    between atoms: _227  and  _229
REMARK   98  A    between atoms: _229  and  _230
REMARK   99  A    between atoms: _229  and  _232
REMARK  100  A    between atoms: _232  and  _233
REMARK  101  A    between atoms: _234  and  _236
REMARK  102  A    between atoms: _236  and  _237
REMARK  103  A    between atoms: _236  and  _239
REMARK  104  A    between atoms: _239  and  _240
REMARK  105  A    between atoms: _240  and  _241
REMARK  106  A    between atoms: _246  and  _248
REMARK  107  A    between atoms: _248  and  _249
REMARK  108  A    between atoms: _248  and  _251
REMARK  109  A    between atoms: _251  and  _252
REMARK  110  A    between atoms: _257  and  _259
REMARK  111  A    between atoms: _259  and  _260
REMARK  112  A    between atoms: _259  and  _262
REMARK  113  A    between atoms: _262  and  _263
REMARK  114  A    between atoms: _266  and  _268
REMARK  115  A    between atoms: _268  and  _269
REMARK  116  A    between atoms: _268  and  _271
REMARK  117  A    between atoms: _271  and  _272
REMARK  118  A    between atoms: _277  and  _278
REMARK  119  A    between atoms: _280  and  _282
REMARK  120  A    between atoms: _282  and  _283
REMARK  121  A    between atoms: _282  and  _285
REMARK  122  A    between atoms: _285  and  _286
REMARK  123  A    between atoms: _291  and  _292
REMARK  124  A    between atoms: _294  and  _296
REMARK  125  A    between atoms: _296  and  _297
REMARK  126  A    between atoms: _296  and  _299
REMARK  127  A    between atoms: _299  and  _300
REMARK  128  A    between atoms: _306  and  _308
REMARK  129  A    between atoms: _308  and  _309
REMARK  130  A    between atoms: _308  and  _311
REMARK  131  A    between atoms: _311  and  _312
REMARK  132  A    between atoms: _315  and  _317
REMARK  133  A    between atoms: _317  and  _318
REMARK  134  A    between atoms: _321  and  _323
REMARK  135  A    between atoms: _323  and  _324
REMARK  136  A    between atoms: _327  and  _329
REMARK  137  A    between atoms: _329  and  _330
REMARK  138  A    between atoms: _329  and  _332
REMARK  139  A    between atoms: _332  and  _333
REMARK                            x       y       z     vdW  Elec       q    Type
REMARK                         _______ _______ _______ _____ _____    ______ ____
ROOT
ATOM      1  CA  LEU A   1      10.084  16.554 -10.126  0.00  0.00    +0.133 C 
ENDROOT
BRANCH   1   2
ATOM      2  N   LEU A   1      10.555  16.744 -11.483  0.00  0.00    -0.239 NA
ATOM      3  H   LEU A   1      10.474  15.979 -12.183  0.00  0.00    +0.142 HD
ENDBRANCH   1   2
BRANCH   1   4
ATOM      4  C   LEU A   1      11.274  16.482  -9.195  0.00  0.00    +0.224 C 
ATOM      5  O   LEU A   1      11.220  16.941  -8.073  0.00  0.00    -0.287 OA
ENDBRANCH   1   4
BRANCH   1   6
ATOM      6  CB  LEU A   1       9.270  15.294 -10.015  0.00  0.00    +0.025 C 
BRANCH   6   7
ATOM      7  CG  LEU A   1       8.738  14.932  -8.642  0.00  0.00    +0.002 C 
ATOM      8  CD2 LEU A   1       8.008  16.070  -8.024  0.00  0.00    +0.000 C 
ATOM      9  CD1 LEU A   1       7.801  13.723  -8.804  0.00  0.00    +0.000 C 
ENDBRANCH   6   7
ENDBRANCH   1   6
TORSDOF 4
REMARK  Name = ../refined-set-2016/1td7/1td7_pocket.pdb
REMARK  139 active torsions:
REMARK  status: ('A' for Active; 'I' for Inactive)
REMARK    1  A    between atoms: _1  and  _3
REMARK    2  A    between atoms: _3  and  _4
REMARK    3  A    between atoms: _3  and  _6
REMARK    4  A    between atoms: _6  and  _7
REMARK    5  A    between atoms: _10  and  _12
REMARK    6  A    between atoms: _12  and  _13
REMARK    7  A    between atoms: _12  and  _15
REMARK    8  A    between atoms: _15  and  _16
REMARK    9  A    between atoms: _21  and  _22
REMARK   10  A    between atoms: _24  and  _26
REMARK   11  A    between atoms: _26  and  _27
REMARK   12  A    between atoms: _26  and  _29
REMARK   13  A    between atoms: _29  and  _30
REMARK   14  A    between atoms: _36  and  _38
REMARK   15  A    between atoms: _38  and  _39
REMARK   16  A    between atoms: _38  and  _41
REMARK   17  A    between atoms: _41  and  _42
REMARK   18  A    between atoms: _42  and  _43
REMARK   19  A    between atoms: _43  and  _44
REMARK   20  A    between atoms: _44  and  _45
REMARK   21  A    between atoms: _49  and  _51
REMARK   22  A    between atoms: _51  and  _52
REMARK   23  A    between atoms: _51  and  _54
REMARK   24  A    between atoms: _54  and  _55
REMARK   25  A    between atoms: _60  and  _62
REMARK   26  A    between atoms: _62  and  _63
REMARK   27  A    between atoms: _62  and  _65
REMARK   28  A    between atoms: _65  and  _66
REMARK   29  A    between atoms: _69  and  _71
REMARK   30  A    between atoms: _71  and  _72
REMARK   31  A    between atoms: _71  and  _74
REMARK   32  A    between atoms: _74  and  _75
REMARK   33  A    between atoms: _75  and  _76
REMARK   34  A    between atoms: _81  and  _83
REMARK   35  A    between atoms: _83  and  _84
REMARK   36  A    between atoms: _83  and  _86
REMARK   37  A    between atoms: _86  and  _87
REMARK   38  A    between atoms: _89  and  _91
REMARK   39  A    between atoms: _91  and  _92
REMARK   40  A    between atoms: _91  and  _94
REMARK   41  A    between atoms: _94  and  _95
REMARK   42  A    between atoms: _105  and  _107
REMARK   43  A    between atoms: _107  and  _108
REMARK   44  A    between atoms: _107  and  _110
REMARK   45  A    between atoms: _110  and  _111
REMARK   46  A    between atoms: _111  and  _112
REMARK   47  A    between atoms: _117  and  _119
REMARK   48  A    between atoms: _119  and  _120
REMARK   49  A    between atoms: _119  and  _122
REMARK   50  A    between atoms: _122  and  _123
REMARK   51  A    between atoms: _126  and  _128
REMARK   52  A    between atoms: _128  and  _129
REMARK   53  A    between atoms: _128  and  _131
REMARK   54  A    between atoms: _131  and  _132
REMARK   55  A    between atoms: _138  and  _140
REMARK   56  A    between atoms: _140  and  _141
REMARK   57  A    between atoms: _144  and  _146
REMARK   58  A    between atoms: _146  and  _147
REMARK   59  A    between atoms: _146  and  _149
REMARK   60  A    between atoms: _149  and  _150
REMARK   61  A    between atoms: _153  and  _155
REMARK   62  A    between atoms: _155  and  _156
REMARK   63  A    between atoms: _155  and  _158
REMARK   64  A    between atoms: _158  and  _159
REMARK   65  A    between atoms: _164  and  _165
REMARK   66  A    between atoms: _167  and  _169
REMARK   67  A    between atoms: _169  and  _170
REMARK   68  A    between atoms: _169  and  _172
REMARK   69  A    between atoms: _172  and  _173
REMARK   70  A    between atoms: _178  and  _179
REMARK   71  A    between atoms: _181  and  _183
REMARK   72  A    between atoms: _183  and  _184
REMARK   73  A    between atoms: _183  and  _186
REMARK   74  A    between atoms: _186  and  _187
REMARK   75  A    between atoms: _187  and  _233
REMARK   76  A    between atoms: _188  and  _190
REMARK   77  A    between atoms: _190  and  _191
REMARK   78  A    between atoms: _191  and  _192
REMARK   79  A    between atoms: _191  and  _193
REMARK   80  A    between atoms: _192  and  CA_339
REMARK   81  A    between atoms: _193  and  _195
REMARK   82  A    between atoms: _195  and  _196
REMARK   83  A    between atoms: _195  and  _198
REMARK   84  A    between atoms: _198  and  _199
REMARK   85  A    between atoms: _199  and  _200
REMARK   86  A    between atoms: _200  and  _201
REMARK   87  A    between atoms: _201  and  _202
REMARK   88  A    between atoms: _206  and  _208
REMARK   89  A    between atoms: _208  and  _209
REMARK   90  A    between atoms: _211  and  _213
REMARK   91  A    between atoms: _213  and  _214
REMARK   92  A    between atoms: _213  and  _216
REMARK   93  A    between atoms: _216  and  _217
REMARK   94  A    between atoms: _220  and  _222
REMARK   95  A    between atoms: _222  and  _223
REMARK   96  A    between atoms: _222  and  _225
REMARK   97  A    between atoms: _227  and  _229
REMARK   98  A    between atoms: _229  and  _230
REMARK   99  A    between atoms: _229  and  _232
REMARK  100  A    between atoms: _232  and  _233
REMARK  101  A    between atoms: _234  and  _236
REMARK  102  A    between atoms: _236  and  _237
REMARK  103  A    between atoms: _236  and  _239
REMARK  104  A    between atoms: _239  and  _240
REMARK  105  A    between atoms: _240  and  _241
REMARK  106  A    between atoms: _246  and  _248
REMARK  107  A    between atoms: _248  and  _249
REMARK  108  A    between atoms: _248  and  _251
REMARK  109  A    between atoms: _251  and  _252
REMARK  110  A    between atoms: _257  and  _259
REMARK  111  A    between atoms: _259  and  _260
REMARK  112  A    between atoms: _259  and  _262
REMARK  113  A    between atoms: _262  and  _263
REMARK  114  A    between atoms: _266  and  _268
REMARK  115  A    between atoms: _268  and  _269
REMARK  116  A    between atoms: _268  and  _271
REMARK  117  A    between atoms: _271  and  _272
REMARK  118  A    between atoms: _277  and  _278
REMARK  119  A    between atoms: _280  and  _282
REMARK  120  A    between atoms: _282  and  _283
REMARK  121  A    between atoms: _282  and  _285
REMARK  122  A    between atoms: _285  and  _286
REMARK  123  A    between atoms: _291  and  _292
REMARK  124  A    between atoms: _294  and  _296
REMARK  125  A    between atoms: _296  and  _297
REMARK  126  A    between atoms: _296  and  _299
REMARK  127  A    between atoms: _299  and  _300
REMARK  128  A    between atoms: _306  and  _308
REMARK  129  A    between atoms: _308  and  _309
REMARK  130  A    between atoms: _308  and  _311
REMARK  131  A    between atoms: _311  and  _312
REMARK  132  A    between atoms: _315  and  _317
REMARK  133  A    between atoms: _317  and  _318
REMARK  134  A    between atoms: _321  and  _323
REMARK  135  A    between atoms: _323  and  _324
REMARK  136  A    between atoms: _327  and  _329
REMARK  137  A    between atoms: _329  and  _330
REMARK  138  A    between atoms: _329  and  _332
REMARK  139  A    between atoms: _332  and  _333
REMARK                            x       y       z     vdW  Elec       q    Type
REMARK                         _______ _______ _______ _____ _____    ______ ____
ROOT
ATOM      1  C   HIS A   1      14.906  22.049  -0.943  0.00  0.00    +0.239 C 
ATOM      2  O   HIS A   1      14.986  22.702   0.100  0.00  0.00    -0.274 OA
ATOM      3  N   ASP A   2      15.755  21.079  -1.250  0.00  0.00    -0.298 N 
ATOM      4  H   ASP A   2      15.615  20.555  -2.137  0.00  0.00    +0.150 HD
ENDROOT
BRANCH   1   5
ATOM      5  CA  HIS A   1      13.798  22.322  -1.998  0.00  0.00    +0.151 C 
BRANCH   5   6
ATOM      6  N   HIS A   1      14.312  22.394  -3.372  0.00  0.00    -0.238 NA
ATOM      7  H   HIS A   1      14.000  21.699  -4.080  0.00  0.00    +0.142 HD
ENDBRANCH   5   6
BRANCH   5   8
ATOM      8  CB  HIS A   1      12.718  21.259  -1.934  0.00  0.00    +0.074 C 
BRANCH   8   9
ATOM      9  CG  HIS A   1      11.990  21.208  -0.626  0.00  0.00    +0.082 A 
ATOM     10  ND1 HIS A   1      12.151  20.174   0.265  0.00  0.00    -0.227 NA
ATOM     11  CE1 HIS A   1      11.362  20.369   1.299  0.00  0.00    +0.199 A 
ATOM     12  NE2 HIS A   1      10.721  21.511   1.127  0.00  0.00    -0.221 NA
ATOM     13  CD2 HIS A   1      11.088  22.048  -0.077  0.00  0.00    +0.115 A 
ENDBRANCH   8   9
ENDBRANCH   5   8
ENDBRANCH   1   5
BRANCH   3  14
ATOM     14  CA  ASP A   2      16.876  20.718  -0.395  0.00  0.00    +0.148 C 
BRANCH  14  15
ATOM     15  C   ASP A   2      17.799  21.898  -0.196  0.00  0.00    +0.227 C 
ATOM     16  O   ASP A   2      18.159  22.231   0.895  0.00  0.00    -0.286 OA
ENDBRANCH  14  15
BRANCH  14  17
ATOM     17  CB  ASP A   2      17.619  19.544  -0.974  0.00  0.00    +0.142 C 
BRANCH  17  18
ATOM     18  CG  ASP A   2      16.845  18.235  -0.809  0.00  0.00    +0.367 C 
ATOM     19  OD2 ASP A   2      15.814  18.252  -0.076  0.00  0.00    -0.246 OA
ATOM     20  OD1 ASP A   2      17.196  17.164  -1.375  0.00  0.00    -0.246 OA
ENDBRANCH  17  18
ENDBRANCH  14  17
ENDBRANCH   3  14
TORSDOF 8
REMARK  Name = ../refined-set-2016/1td7/1td7_pocket.pdb
REMARK  139 active torsions:
REMARK  status: ('A' for Active; 'I' for Inactive)
REMARK    1  A    between atoms: _1  and  _3
REMARK    2  A    between atoms: _3  and  _4
REMARK    3  A    between atoms: _3  and  _6
REMARK    4  A    between atoms: _6  and  _7
REMARK    5  A    between atoms: _10  and  _12
REMARK    6  A    between atoms: _12  and  _13
REMARK    7  A    between atoms: _12  and  _15
REMARK    8  A    between atoms: _15  and  _16
REMARK    9  A    between atoms: _21  and  _22
REMARK   10  A    between atoms: _24  and  _26
REMARK   11  A    between atoms: _26  and  _27
REMARK   12  A    between atoms: _26  and  _29
REMARK   13  A    between atoms: _29  and  _30
REMARK   14  A    between atoms: _36  and  _38
REMARK   15  A    between atoms: _38  and  _39
REMARK   16  A    between atoms: _38  and  _41
REMARK   17  A    between atoms: _41  and  _42
REMARK   18  A    between atoms: _42  and  _43
REMARK   19  A    between atoms: _43  and  _44
REMARK   20  A    between atoms: _44  and  _45
REMARK   21  A    between atoms: _49  and  _51
REMARK   22  A    between atoms: _51  and  _52
REMARK   23  A    between atoms: _51  and  _54
REMARK   24  A    between atoms: _54  and  _55
REMARK   25  A    between atoms: _60  and  _62
REMARK   26  A    between atoms: _62  and  _63
REMARK   27  A    between atoms: _62  and  _65
REMARK   28  A    between atoms: _65  and  _66
REMARK   29  A    between atoms: _69  and  _71
REMARK   30  A    between atoms: _71  and  _72
REMARK   31  A    between atoms: _71  and  _74
REMARK   32  A    between atoms: _74  and  _75
REMARK   33  A    between atoms: _75  and  _76
REMARK   34  A    between atoms: _81  and  _83
REMARK   35  A    between atoms: _83  and  _84
REMARK   36  A    between atoms: _83  and  _86
REMARK   37  A    between atoms: _86  and  _87
REMARK   38  A    between atoms: _89  and  _91
REMARK   39  A    between atoms: _91  and  _92
REMARK   40  A    between atoms: _91  and  _94
REMARK   41  A    between atoms: _94  and  _95
REMARK   42  A    between atoms: _105  and  _107
REMARK   43  A    between atoms: _107  and  _108
REMARK   44  A    between atoms: _107  and  _110
REMARK   45  A    between atoms: _110  and  _111
REMARK   46  A    between atoms: _111  and  _112
REMARK   47  A    between atoms: _117  and  _119
REMARK   48  A    between atoms: _119  and  _120
REMARK   49  A    between atoms: _119  and  _122
REMARK   50  A    between atoms: _122  and  _123
REMARK   51  A    between atoms: _126  and  _128
REMARK   52  A    between atoms: _128  and  _129
REMARK   53  A    between atoms: _128  and  _131
REMARK   54  A    between atoms: _131  and  _132
REMARK   55  A    between atoms: _138  and  _140
REMARK   56  A    between atoms: _140  and  _141
REMARK   57  A    between atoms: _144  and  _146
REMARK   58  A    between atoms: _146  and  _147
REMARK   59  A    between atoms: _146  and  _149
REMARK   60  A    between atoms: _149  and  _150
REMARK   61  A    between atoms: _153  and  _155
REMARK   62  A    between atoms: _155  and  _156
REMARK   63  A    between atoms: _155  and  _158
REMARK   64  A    between atoms: _158  and  _159
REMARK   65  A    between atoms: _164  and  _165
REMARK   66  A    between atoms: _167  and  _169
REMARK   67  A    between atoms: _169  and  _170
REMARK   68  A    between atoms: _169  and  _172
REMARK   69  A    between atoms: _172  and  _173
REMARK   70  A    between atoms: _178  and  _179
REMARK   71  A    between atoms: _181  and  _183
REMARK   72  A    between atoms: _183  and  _184
REMARK   73  A    between atoms: _183  and  _186
REMARK   74  A    between atoms: _186  and  _187
REMARK   75  A    between atoms: _187  and  _233
REMARK   76  A    between atoms: _188  and  _190
REMARK   77  A    between atoms: _190  and  _191
REMARK   78  A    between atoms: _191  and  _192
REMARK   79  A    between atoms: _191  and  _193
REMARK   80  A    between atoms: _192  and  CA_339
REMARK   81  A    between atoms: _193  and  _195
REMARK   82  A    between atoms: _195  and  _196
REMARK   83  A    between atoms: _195  and  _198
REMARK   84  A    between atoms: _198  and  _199
REMARK   85  A    between atoms: _199  and  _200
REMARK   86  A    between atoms: _200  and  _201
REMARK   87  A    between atoms: _201  and  _202
REMARK   88  A    between atoms: _206  and  _208
REMARK   89  A    between atoms: _208  and  _209
REMARK   90  A    between atoms: _211  and  _213
REMARK   91  A    between atoms: _213  and  _214
REMARK   92  A    between atoms: _213  and  _216
REMARK   93  A    between atoms: _216  and  _217
REMARK   94  A    between atoms: _220  and  _222
REMARK   95  A    between atoms: _222  and  _223
REMARK   96  A    between atoms: _222  and  _225
REMARK   97  A    between atoms: _227  and  _229
REMARK   98  A    between atoms: _229  and  _230
REMARK   99  A    between atoms: _229  and  _232
REMARK  100  A    between atoms: _232  and  _233
REMARK  101  A    between atoms: _234  and  _236
REMARK  102  A    between atoms: _236  and  _237
REMARK  103  A    between atoms: _236  and  _239
REMARK  104  A    between atoms: _239  and  _240
REMARK  105  A    between atoms: _240  and  _241
REMARK  106  A    between atoms: _246  and  _248
REMARK  107  A    between atoms: _248  and  _249
REMARK  108  A    between atoms: _248  and  _251
REMARK  109  A    between atoms: _251  and  _252
REMARK  110  A    between atoms: _257  and  _259
REMARK  111  A    between atoms: _259  and  _260
REMARK  112  A    between atoms: _259  and  _262
REMARK  113  A    between atoms: _262  and  _263
REMARK  114  A    between atoms: _266  and  _268
REMARK  115  A    between atoms: _268  and  _269
REMARK  116  A    between atoms: _268  and  _271
REMARK  117  A    between atoms: _271  and  _272
REMARK  118  A    between atoms: _277  and  _278
REMARK  119  A    between atoms: _280  and  _282
REMARK  120  A    between atoms: _282  and  _283
REMARK  121  A    between atoms: _282  and  _285
REMARK  122  A    between atoms: _285  and  _286
REMARK  123  A    between atoms: _291  and  _292
REMARK  124  A    between atoms: _294  and  _296
REMARK  125  A    between atoms: _296  and  _297
REMARK  126  A    between atoms: _296  and  _299
REMARK  127  A    between atoms: _299  and  _300
REMARK  128  A    between atoms: _306  and  _308
REMARK  129  A    between atoms: _308  and  _309
REMARK  130  A    between atoms: _308  and  _311
REMARK  131  A    between atoms: _311  and  _312
REMARK  132  A    between atoms: _315  and  _317
REMARK  133  A    between atoms: _317  and  _318
REMARK  134  A    between atoms: _321  and  _323
REMARK  135  A    between atoms: _323  and  _324
REMARK  136  A    between atoms: _327  and  _329
REMARK  137  A    between atoms: _329  and  _330
REMARK  138  A    between atoms: _329  and  _332
REMARK  139  A    between atoms: _332  and  _333
REMARK                            x       y       z     vdW  Elec       q    Type
REMARK                         _______ _______ _______ _____ _____    ______ ____
ROOT
ATOM      1  CG  TYR A   1      14.792  22.243   3.873  0.00  0.00    -0.020 A 
ATOM      2  CD2 TYR A   1      14.494  20.983   4.335  0.00  0.00    -0.001 A 
ATOM      3  CE2 TYR A   1      13.202  20.608   4.627  0.00  0.00    +0.036 A 
ATOM      4  CZ  TYR A   1      12.191  21.484   4.467  0.00  0.00    +0.134 A 
ATOM      5  CE1 TYR A   1      12.437  22.751   4.004  0.00  0.00    +0.036 A 
ATOM      6  CD1 TYR A   1      13.744  23.130   3.707  0.00  0.00    -0.001 A 
ENDROOT
BRANCH   4   7
ATOM      7  OH  TYR A   1      10.938  21.061   4.762  0.00  0.00    -0.506 OA
ATOM      8  HH  TYR A   1      10.296  21.797   4.602  0.00  0.00    +0.292 HD
ENDBRANCH   4   7
BRANCH   1   9
ATOM      9  CB  TYR A   1      16.226  22.621   3.565  0.00  0.00    +0.051 C 
BRANCH   9  10
ATOM     10  CA  TYR A   1      16.490  24.105   3.480  0.00  0.00    +0.137 C 
BRANCH  10  11
ATOM     11  N   TYR A   1      16.327  24.550   2.122  0.00  0.00    -0.239 NA
ATOM     12  H   TYR A   1      16.036  23.863   1.398  0.00  0.00    +0.142 HD
ENDBRANCH  10  11
BRANCH  10  13
ATOM     13  C   TYR A   1      17.901  24.378   3.922  0.00  0.00    +0.224 C 
ATOM     14  O   TYR A   1      18.140  24.951   4.969  0.00  0.00    -0.287 OA
ENDBRANCH  10  13
ENDBRANCH   9  10
ENDBRANCH   1   9
TORSDOF 5
REMARK  Name = ../refined-set-2016/1td7/1td7_pocket.pdb
REMARK  139 active torsions:
REMARK  status: ('A' for Active; 'I' for Inactive)
REMARK    1  A    between atoms: _1  and  _3
REMARK    2  A    between atoms: _3  and  _4
REMARK    3  A    between atoms: _3  and  _6
REMARK    4  A    between atoms: _6  and  _7
REMARK    5  A    between atoms: _10  and  _12
REMARK    6  A    between atoms: _12  and  _13
REMARK    7  A    between atoms: _12  and  _15
REMARK    8  A    between atoms: _15  and  _16
REMARK    9  A    between atoms: _21  and  _22
REMARK   10  A    between atoms: _24  and  _26
REMARK   11  A    between atoms: _26  and  _27
REMARK   12  A    between atoms: _26  and  _29
REMARK   13  A    between atoms: _29  and  _30
REMARK   14  A    between atoms: _36  and  _38
REMARK   15  A    between atoms: _38  and  _39
REMARK   16  A    between atoms: _38  and  _41
REMARK   17  A    between atoms: _41  and  _42
REMARK   18  A    between atoms: _42  and  _43
REMARK   19  A    between atoms: _43  and  _44
REMARK   20  A    between atoms: _44  and  _45
REMARK   21  A    between atoms: _49  and  _51
REMARK   22  A    between atoms: _51  and  _52
REMARK   23  A    between atoms: _51  and  _54
REMARK   24  A    between atoms: _54  and  _55
REMARK   25  A    between atoms: _60  and  _62
REMARK   26  A    between atoms: _62  and  _63
REMARK   27  A    between atoms: _62  and  _65
REMARK   28  A    between atoms: _65  and  _66
REMARK   29  A    between atoms: _69  and  _71
REMARK   30  A    between atoms: _71  and  _72
REMARK   31  A    between atoms: _71  and  _74
REMARK   32  A    between atoms: _74  and  _75
REMARK   33  A    between atoms: _75  and  _76
REMARK   34  A    between atoms: _81  and  _83
REMARK   35  A    between atoms: _83  and  _84
REMARK   36  A    between atoms: _83  and  _86
REMARK   37  A    between atoms: _86  and  _87
REMARK   38  A    between atoms: _89  and  _91
REMARK   39  A    between atoms: _91  and  _92
REMARK   40  A    between atoms: _91  and  _94
REMARK   41  A    between atoms: _94  and  _95
REMARK   42  A    between atoms: _105  and  _107
REMARK   43  A    between atoms: _107  and  _108
REMARK   44  A    between atoms: _107  and  _110
REMARK   45  A    between atoms: _110  and  _111
REMARK   46  A    between atoms: _111  and  _112
REMARK   47  A    between atoms: _117  and  _119
REMARK   48  A    between atoms: _119  and  _120
REMARK   49  A    between atoms: _119  and  _122
REMARK   50  A    between atoms: _122  and  _123
REMARK   51  A    between atoms: _126  and  _128
REMARK   52  A    between atoms: _128  and  _129
REMARK   53  A    between atoms: _128  and  _131
REMARK   54  A    between atoms: _131  and  _132
REMARK   55  A    between atoms: _138  and  _140
REMARK   56  A    between atoms: _140  and  _141
REMARK   57  A    between atoms: _144  and  _146
REMARK   58  A    between atoms: _146  and  _147
REMARK   59  A    between atoms: _146  and  _149
REMARK   60  A    between atoms: _149  and  _150
REMARK   61  A    between atoms: _153  and  _155
REMARK   62  A    between atoms: _155  and  _156
REMARK   63  A    between atoms: _155  and  _158
REMARK   64  A    between atoms: _158  and  _159
REMARK   65  A    between atoms: _164  and  _165
REMARK   66  A    between atoms: _167  and  _169
REMARK   67  A    between atoms: _169  and  _170
REMARK   68  A    between atoms: _169  and  _172
REMARK   69  A    between atoms: _172  and  _173
REMARK   70  A    between atoms: _178  and  _179
REMARK   71  A    between atoms: _181  and  _183
REMARK   72  A    between atoms: _183  and  _184
REMARK   73  A    between atoms: _183  and  _186
REMARK   74  A    between atoms: _186  and  _187
REMARK   75  A    between atoms: _187  and  _233
REMARK   76  A    between atoms: _188  and  _190
REMARK   77  A    between atoms: _190  and  _191
REMARK   78  A    between atoms: _191  and  _192
REMARK   79  A    between atoms: _191  and  _193
REMARK   80  A    between atoms: _192  and  CA_339
REMARK   81  A    between atoms: _193  and  _195
REMARK   82  A    between atoms: _195  and  _196
REMARK   83  A    between atoms: _195  and  _198
REMARK   84  A    between atoms: _198  and  _199
REMARK   85  A    between atoms: _199  and  _200
REMARK   86  A    between atoms: _200  and  _201
REMARK   87  A    between atoms: _201  and  _202
REMARK   88  A    between atoms: _206  and  _208
REMARK   89  A    between atoms: _208  and  _209
REMARK   90  A    between atoms: _211  and  _213
REMARK   91  A    between atoms: _213  and  _214
REMARK   92  A    between atoms: _213  and  _216
REMARK   93  A    between atoms: _216  and  _217
REMARK   94  A    between atoms: _220  and  _222
REMARK   95  A    between atoms: _222  and  _223
REMARK   96  A    between atoms: _222  and  _225
REMARK   97  A    between atoms: _227  and  _229
REMARK   98  A    between atoms: _229  and  _230
REMARK   99  A    between atoms: _229  and  _232
REMARK  100  A    between atoms: _232  and  _233
REMARK  101  A    between atoms: _234  and  _236
REMARK  102  A    between atoms: _236  and  _237
REMARK  103  A    between atoms: _236  and  _239
REMARK  104  A    between atoms: _239  and  _240
REMARK  105  A    between atoms: _240  and  _241
REMARK  106  A    between atoms: _246  and  _248
REMARK  107  A    between atoms: _248  and  _249
REMARK  108  A    between atoms: _248  and  _251
REMARK  109  A    between atoms: _251  and  _252
REMARK  110  A    between atoms: _257  and  _259
REMARK  111  A    between atoms: _259  and  _260
REMARK  112  A    between atoms: _259  and  _262
REMARK  113  A    between atoms: _262  and  _263
REMARK  114  A    between atoms: _266  and  _268
REMARK  115  A    between atoms: _268  and  _269
REMARK  116  A    between atoms: _268  and  _271
REMARK  117  A    between atoms: _271  and  _272
REMARK  118  A    between atoms: _277  and  _278
REMARK  119  A    between atoms: _280  and  _282
REMARK  120  A    between atoms: _282  and  _283
REMARK  121  A    between atoms: _282  and  _285
REMARK  122  A    between atoms: _285  and  _286
REMARK  123  A    between atoms: _291  and  _292
REMARK  124  A    between atoms: _294  and  _296
REMARK  125  A    between atoms: _296  and  _297
REMARK  126  A    between atoms: _296  and  _299
REMARK  127  A    between atoms: _299  and  _300
REMARK  128  A    between atoms: _306  and  _308
REMARK  129  A    between atoms: _308  and  _309
REMARK  130  A    between atoms: _308  and  _311
REMARK  131  A    between atoms: _311  and  _312
REMARK  132  A    between atoms: _315  and  _317
REMARK  133  A    between atoms: _317  and  _318
REMARK  134  A    between atoms: _321  and  _323
REMARK  135  A    between atoms: _323  and  _324
REMARK  136  A    between atoms: _327  and  _329
REMARK  137  A    between atoms: _329  and  _330
REMARK  138  A    between atoms: _329  and  _332
REMARK  139  A    between atoms: _332  and  _333
REMARK                            x       y       z     vdW  Elec       q    Type
REMARK                         _______ _______ _______ _____ _____    ______ ____
ROOT
ATOM      1  C   TYR A   1      11.768  19.670  10.605  0.00  0.00    +0.239 C 
ATOM      2  N   PHE A   2      12.218  20.432  11.592  0.00  0.00    -0.298 N 
ATOM      3  H   PHE A   2      13.098  20.973  11.471  0.00  0.00    +0.150 HD
ATOM      4  O   TYR A   1      10.678  19.106  10.639  0.00  0.00    -0.274 OA
ENDROOT
BRANCH   1   5
ATOM      5  CA  TYR A   1      12.646  19.542   9.378  0.00  0.00    +0.149 C 
BRANCH   5   6
ATOM      6  N   TYR A   1      13.482  20.737   9.209  0.00  0.00    -0.238 NA
ATOM      7  H   TYR A   1      14.499  20.705   9.425  0.00  0.00    +0.142 HD
ENDBRANCH   5   6
BRANCH   5   8
ATOM      8  CB  TYR A   1      13.474  18.258   9.481  0.00  0.00    +0.053 C 
BRANCH   8   9
ATOM      9  CG  TYR A   1      13.990  17.713   8.163  0.00  0.00    -0.020 A 
ATOM     10  CD2 TYR A   1      13.459  16.562   7.620  0.00  0.00    -0.001 A 
ATOM     11  CE2 TYR A   1      13.919  16.046   6.431  0.00  0.00    +0.036 A 
ATOM     12  CZ  TYR A   1      14.932  16.671   5.763  0.00  0.00    +0.134 A 
ATOM     13  CE1 TYR A   1      15.496  17.809   6.288  0.00  0.00    +0.036 A 
ATOM     14  CD1 TYR A   1      15.020  18.321   7.483  0.00  0.00    -0.001 A 
BRANCH  12  15
ATOM     15  OH  TYR A   1      15.385  16.137   4.568  0.00  0.00    -0.506 OA
ATOM     16  HH  TYR A   1      14.640  16.110   3.917  0.00  0.00    +0.292 HD
ENDBRANCH  12  15
ENDBRANCH   8   9
ENDBRANCH   5   8
ENDBRANCH   1   5
BRANCH   2  17
ATOM     17  CA  PHE A   2      11.486  20.512  12.837  0.00  0.00    +0.141 C 
BRANCH  17  18
ATOM     18  C   PHE A   2      10.756  21.781  13.155  0.00  0.00    +0.227 C 
ATOM     19  O   PHE A   2       9.907  21.789  14.021  0.00  0.00    -0.286 OA
ENDBRANCH  17  18
BRANCH  17  20
ATOM     20  CB  PHE A   2      12.432  20.184  13.975  0.00  0.00    +0.054 C 
BRANCH  20  21
ATOM     21  CG  PHE A   2      13.039  18.864  13.817  0.00  0.00    -0.020 A 
ATOM     22  CD2 PHE A   2      12.338  17.745  14.131  0.00  0.00    -0.004 A 
ATOM     23  CE2 PHE A   2      12.914  16.499  13.930  0.00  0.00    -0.000 A 
ATOM     24  CZ  PHE A   2      14.186  16.401  13.384  0.00  0.00    -0.000 A 
ATOM     25  CE1 PHE A   2      14.857  17.516  13.043  0.00  0.00    -0.000 A 
ATOM     26  CD1 PHE A   2      14.287  18.742  13.244  0.00  0.00    -0.004 A 
ENDBRANCH  20  21
ENDBRANCH  17  20
ENDBRANCH   2  17
TORSDOF 9
REMARK  Name = ../refined-set-2016/1td7/1td7_pocket.pdb
REMARK  139 active torsions:
REMARK  status: ('A' for Active; 'I' for Inactive)
REMARK    1  A    between atoms: _1  and  _3
REMARK    2  A    between atoms: _3  and  _4
REMARK    3  A    between atoms: _3  and  _6
REMARK    4  A    between atoms: _6  and  _7
REMARK    5  A    between atoms: _10  and  _12
REMARK    6  A    between atoms: _12  and  _13
REMARK    7  A    between atoms: _12  and  _15
REMARK    8  A    between atoms: _15  and  _16
REMARK    9  A    between atoms: _21  and  _22
REMARK   10  A    between atoms: _24  and  _26
REMARK   11  A    between atoms: _26  and  _27
REMARK   12  A    between atoms: _26  and  _29
REMARK   13  A    between atoms: _29  and  _30
REMARK   14  A    between atoms: _36  and  _38
REMARK   15  A    between atoms: _38  and  _39
REMARK   16  A    between atoms: _38  and  _41
REMARK   17  A    between atoms: _41  and  _42
REMARK   18  A    between atoms: _42  and  _43
REMARK   19  A    between atoms: _43  and  _44
REMARK   20  A    between atoms: _44  and  _45
REMARK   21  A    between atoms: _49  and  _51
REMARK   22  A    between atoms: _51  and  _52
REMARK   23  A    between atoms: _51  and  _54
REMARK   24  A    between atoms: _54  and  _55
REMARK   25  A    between atoms: _60  and  _62
REMARK   26  A    between atoms: _62  and  _63
REMARK   27  A    between atoms: _62  and  _65
REMARK   28  A    between atoms: _65  and  _66
REMARK   29  A    between atoms: _69  and  _71
REMARK   30  A    between atoms: _71  and  _72
REMARK   31  A    between atoms: _71  and  _74
REMARK   32  A    between atoms: _74  and  _75
REMARK   33  A    between atoms: _75  and  _76
REMARK   34  A    between atoms: _81  and  _83
REMARK   35  A    between atoms: _83  and  _84
REMARK   36  A    between atoms: _83  and  _86
REMARK   37  A    between atoms: _86  and  _87
REMARK   38  A    between atoms: _89  and  _91
REMARK   39  A    between atoms: _91  and  _92
REMARK   40  A    between atoms: _91  and  _94
REMARK   41  A    between atoms: _94  and  _95
REMARK   42  A    between atoms: _105  and  _107
REMARK   43  A    between atoms: _107  and  _108
REMARK   44  A    between atoms: _107  and  _110
REMARK   45  A    between atoms: _110  and  _111
REMARK   46  A    between atoms: _111  and  _112
REMARK   47  A    between atoms: _117  and  _119
REMARK   48  A    between atoms: _119  and  _120
REMARK   49  A    between atoms: _119  and  _122
REMARK   50  A    between atoms: _122  and  _123
REMARK   51  A    between atoms: _126  and  _128
REMARK   52  A    between atoms: _128  and  _129
REMARK   53  A    between atoms: _128  and  _131
REMARK   54  A    between atoms: _131  and  _132
REMARK   55  A    between atoms: _138  and  _140
REMARK   56  A    between atoms: _140  and  _141
REMARK   57  A    between atoms: _144  and  _146
REMARK   58  A    between atoms: _146  and  _147
REMARK   59  A    between atoms: _146  and  _149
REMARK   60  A    between atoms: _149  and  _150
REMARK   61  A    between atoms: _153  and  _155
REMARK   62  A    between atoms: _155  and  _156
REMARK   63  A    between atoms: _155  and  _158
REMARK   64  A    between atoms: _158  and  _159
REMARK   65  A    between atoms: _164  and  _165
REMARK   66  A    between atoms: _167  and  _169
REMARK   67  A    between atoms: _169  and  _170
REMARK   68  A    between atoms: _169  and  _172
REMARK   69  A    between atoms: _172  and  _173
REMARK   70  A    between atoms: _178  and  _179
REMARK   71  A    between atoms: _181  and  _183
REMARK   72  A    between atoms: _183  and  _184
REMARK   73  A    between atoms: _183  and  _186
REMARK   74  A    between atoms: _186  and  _187
REMARK   75  A    between atoms: _187  and  _233
REMARK   76  A    between atoms: _188  and  _190
REMARK   77  A    between atoms: _190  and  _191
REMARK   78  A    between atoms: _191  and  _192
REMARK   79  A    between atoms: _191  and  _193
REMARK   80  A    between atoms: _192  and  CA_339
REMARK   81  A    between atoms: _193  and  _195
REMARK   82  A    between atoms: _195  and  _196
REMARK   83  A    between atoms: _195  and  _198
REMARK   84  A    between atoms: _198  and  _199
REMARK   85  A    between atoms: _199  and  _200
REMARK   86  A    between atoms: _200  and  _201
REMARK   87  A    between atoms: _201  and  _202
REMARK   88  A    between atoms: _206  and  _208
REMARK   89  A    between atoms: _208  and  _209
REMARK   90  A    between atoms: _211  and  _213
REMARK   91  A    between atoms: _213  and  _214
REMARK   92  A    between atoms: _213  and  _216
REMARK   93  A    between atoms: _216  and  _217
REMARK   94  A    between atoms: _220  and  _222
REMARK   95  A    between atoms: _222  and  _223
REMARK   96  A    between atoms: _222  and  _225
REMARK   97  A    between atoms: _227  and  _229
REMARK   98  A    between atoms: _229  and  _230
REMARK   99  A    between atoms: _229  and  _232
REMARK  100  A    between atoms: _232  and  _233
REMARK  101  A    between atoms: _234  and  _236
REMARK  102  A    between atoms: _236  and  _237
REMARK  103  A    between atoms: _236  and  _239
REMARK  104  A    between atoms: _239  and  _240
REMARK  105  A    between atoms: _240  and  _241
REMARK  106  A    between atoms: _246  and  _248
REMARK  107  A    between atoms: _248  and  _249
REMARK  108  A    between atoms: _248  and  _251
REMARK  109  A    between atoms: _251  and  _252
REMARK  110  A    between atoms: _257  and  _259
REMARK  111  A    between atoms: _259  and  _260
REMARK  112  A    between atoms: _259  and  _262
REMARK  113  A    between atoms: _262  and  _263
REMARK  114  A    between atoms: _266  and  _268
REMARK  115  A    between atoms: _268  and  _269
REMARK  116  A    between atoms: _268  and  _271
REMARK  117  A    between atoms: _271  and  _272
REMARK  118  A    between atoms: _277  and  _278
REMARK  119  A    between atoms: _280  and  _282
REMARK  120  A    between atoms: _282  and  _283
REMARK  121  A    between atoms: _282  and  _285
REMARK  122  A    between atoms: _285  and  _286
REMARK  123  A    between atoms: _291  and  _292
REMARK  124  A    between atoms: _294  and  _296
REMARK  125  A    between atoms: _296  and  _297
REMARK  126  A    between atoms: _296  and  _299
REMARK  127  A    between atoms: _299  and  _300
REMARK  128  A    between atoms: _306  and  _308
REMARK  129  A    between atoms: _308  and  _309
REMARK  130  A    between atoms: _308  and  _311
REMARK  131  A    between atoms: _311  and  _312
REMARK  132  A    between atoms: _315  and  _317
REMARK  133  A    between atoms: _317  and  _318
REMARK  134  A    between atoms: _321  and  _323
REMARK  135  A    between atoms: _323  and  _324
REMARK  136  A    between atoms: _327  and  _329
REMARK  137  A    between atoms: _329  and  _330
REMARK  138  A    between atoms: _329  and  _332
REMARK  139  A    between atoms: _332  and  _333
REMARK                            x       y       z     vdW  Elec       q    Type
REMARK                         _______ _______ _______ _____ _____    ______ ____
ROOT
ATOM      1  CA  ASP A   1       7.878  24.076   1.566  0.00  0.00    +0.144 C 
ENDROOT
BRANCH   1   2
ATOM      2  N   ASP A   1       8.877  25.104   1.686  0.00  0.00    -0.239 NA
ATOM      3  H   ASP A   1       9.044  25.536   2.617  0.00  0.00    +0.142 HD
ENDBRANCH   1   2
BRANCH   1   4
ATOM      4  C   ASP A   1       6.741  24.439   0.590  0.00  0.00    +0.225 C 
ATOM      5  O   ASP A   1       6.248  23.618  -0.199  0.00  0.00    -0.287 OA
ENDBRANCH   1   4
BRANCH   1   6
ATOM      6  CB  ASP A   1       7.304  23.786   2.924  0.00  0.00    +0.139 C 
BRANCH   6   7
ATOM      7  CG  ASP A   1       8.227  22.968   3.755  0.00  0.00    +0.367 C 
ATOM      8  OD2 ASP A   1       7.883  22.591   4.894  0.00  0.00    -0.246 OA
ATOM      9  OD1 ASP A   1       9.371  22.658   3.263  0.00  0.00    -0.246 OA
ENDBRANCH   6   7
ENDBRANCH   1   6
TORSDOF 4
REMARK  Name = ../refined-set-2016/1td7/1td7_pocket.pdb
REMARK  139 active torsions:
REMARK  status: ('A' for Active; 'I' for Inactive)
REMARK    1  A    between atoms: _1  and  _3
REMARK    2  A    between atoms: _3  and  _4
REMARK    3  A    between atoms: _3  and  _6
REMARK    4  A    between atoms: _6  and  _7
REMARK    5  A    between atoms: _10  and  _12
REMARK    6  A    between atoms: _12  and  _13
REMARK    7  A    between atoms: _12  and  _15
REMARK    8  A    between atoms: _15  and  _16
REMARK    9  A    between atoms: _21  and  _22
REMARK   10  A    between atoms: _24  and  _26
REMARK   11  A    between atoms: _26  and  _27
REMARK   12  A    between atoms: _26  and  _29
REMARK   13  A    between atoms: _29  and  _30
REMARK   14  A    between atoms: _36  and  _38
REMARK   15  A    between atoms: _38  and  _39
REMARK   16  A    between atoms: _38  and  _41
REMARK   17  A    between atoms: _41  and  _42
REMARK   18  A    between atoms: _42  and  _43
REMARK   19  A    between atoms: _43  and  _44
REMARK   20  A    between atoms: _44  and  _45
REMARK   21  A    between atoms: _49  and  _51
REMARK   22  A    between atoms: _51  and  _52
REMARK   23  A    between atoms: _51  and  _54
REMARK   24  A    between atoms: _54  and  _55
REMARK   25  A    between atoms: _60  and  _62
REMARK   26  A    between atoms: _62  and  _63
REMARK   27  A    between atoms: _62  and  _65
REMARK   28  A    between atoms: _65  and  _66
REMARK   29  A    between atoms: _69  and  _71
REMARK   30  A    between atoms: _71  and  _72
REMARK   31  A    between atoms: _71  and  _74
REMARK   32  A    between atoms: _74  and  _75
REMARK   33  A    between atoms: _75  and  _76
REMARK   34  A    between atoms: _81  and  _83
REMARK   35  A    between atoms: _83  and  _84
REMARK   36  A    between atoms: _83  and  _86
REMARK   37  A    between atoms: _86  and  _87
REMARK   38  A    between atoms: _89  and  _91
REMARK   39  A    between atoms: _91  and  _92
REMARK   40  A    between atoms: _91  and  _94
REMARK   41  A    between atoms: _94  and  _95
REMARK   42  A    between atoms: _105  and  _107
REMARK   43  A    between atoms: _107  and  _108
REMARK   44  A    between atoms: _107  and  _110
REMARK   45  A    between atoms: _110  and  _111
REMARK   46  A    between atoms: _111  and  _112
REMARK   47  A    between atoms: _117  and  _119
REMARK   48  A    between atoms: _119  and  _120
REMARK   49  A    between atoms: _119  and  _122
REMARK   50  A    between atoms: _122  and  _123
REMARK   51  A    between atoms: _126  and  _128
REMARK   52  A    between atoms: _128  and  _129
REMARK   53  A    between atoms: _128  and  _131
REMARK   54  A    between atoms: _131  and  _132
REMARK   55  A    between atoms: _138  and  _140
REMARK   56  A    between atoms: _140  and  _141
REMARK   57  A    between atoms: _144  and  _146
REMARK   58  A    between atoms: _146  and  _147
REMARK   59  A    between atoms: _146  and  _149
REMARK   60  A    between atoms: _149  and  _150
REMARK   61  A    between atoms: _153  and  _155
REMARK   62  A    between atoms: _155  and  _156
REMARK   63  A    between atoms: _155  and  _158
REMARK   64  A    between atoms: _158  and  _159
REMARK   65  A    between atoms: _164  and  _165
REMARK   66  A    between atoms: _167  and  _169
REMARK   67  A    between atoms: _169  and  _170
REMARK   68  A    between atoms: _169  and  _172
REMARK   69  A    between atoms: _172  and  _173
REMARK   70  A    between atoms: _178  and  _179
REMARK   71  A    between atoms: _181  and  _183
REMARK   72  A    between atoms: _183  and  _184
REMARK   73  A    between atoms: _183  and  _186
REMARK   74  A    between atoms: _186  and  _187
REMARK   75  A    between atoms: _187  and  _233
REMARK   76  A    between atoms: _188  and  _190
REMARK   77  A    between atoms: _190  and  _191
REMARK   78  A    between atoms: _191  and  _192
REMARK   79  A    between atoms: _191  and  _193
REMARK   80  A    between atoms: _192  and  CA_339
REMARK   81  A    between atoms: _193  and  _195
REMARK   82  A    between atoms: _195  and  _196
REMARK   83  A    between atoms: _195  and  _198
REMARK   84  A    between atoms: _198  and  _199
REMARK   85  A    between atoms: _199  and  _200
REMARK   86  A    between atoms: _200  and  _201
REMARK   87  A    between atoms: _201  and  _202
REMARK   88  A    between atoms: _206  and  _208
REMARK   89  A    between atoms: _208  and  _209
REMARK   90  A    between atoms: _211  and  _213
REMARK   91  A    between atoms: _213  and  _214
REMARK   92  A    between atoms: _213  and  _216
REMARK   93  A    between atoms: _216  and  _217
REMARK   94  A    between atoms: _220  and  _222
REMARK   95  A    between atoms: _222  and  _223
REMARK   96  A    between atoms: _222  and  _225
REMARK   97  A    between atoms: _227  and  _229
REMARK   98  A    between atoms: _229  and  _230
REMARK   99  A    between atoms: _229  and  _232
REMARK  100  A    between atoms: _232  and  _233
REMARK  101  A    between atoms: _234  and  _236
REMARK  102  A    between atoms: _236  and  _237
REMARK  103  A    between atoms: _236  and  _239
REMARK  104  A    between atoms: _239  and  _240
REMARK  105  A    between atoms: _240  and  _241
REMARK  106  A    between atoms: _246  and  _248
REMARK  107  A    between atoms: _248  and  _249
REMARK  108  A    between atoms: _248  and  _251
REMARK  109  A    between atoms: _251  and  _252
REMARK  110  A    between atoms: _257  and  _259
REMARK  111  A    between atoms: _259  and  _260
REMARK  112  A    between atoms: _259  and  _262
REMARK  113  A    between atoms: _262  and  _263
REMARK  114  A    between atoms: _266  and  _268
REMARK  115  A    between atoms: _268  and  _269
REMARK  116  A    between atoms: _268  and  _271
REMARK  117  A    between atoms: _271  and  _272
REMARK  118  A    between atoms: _277  and  _278
REMARK  119  A    between atoms: _280  and  _282
REMARK  120  A    between atoms: _282  and  _283
REMARK  121  A    between atoms: _282  and  _285
REMARK  122  A    between atoms: _285  and  _286
REMARK  123  A    between atoms: _291  and  _292
REMARK  124  A    between atoms: _294  and  _296
REMARK  125  A    between atoms: _296  and  _297
REMARK  126  A    between atoms: _296  and  _299
REMARK  127  A    between atoms: _299  and  _300
REMARK  128  A    between atoms: _306  and  _308
REMARK  129  A    between atoms: _308  and  _309
REMARK  130  A    between atoms: _308  and  _311
REMARK  131  A    between atoms: _311  and  _312
REMARK  132  A    between atoms: _315  and  _317
REMARK  133  A    between atoms: _317  and  _318
REMARK  134  A    between atoms: _321  and  _323
REMARK  135  A    between atoms: _323  and  _324
REMARK  136  A    between atoms: _327  and  _329
REMARK  137  A    between atoms: _329  and  _330
REMARK  138  A    between atoms: _329  and  _332
REMARK  139  A    between atoms: _332  and  _333
REMARK                            x       y       z     vdW  Elec       q    Type
REMARK                         _______ _______ _______ _____ _____    ______ ____
ROOT
ATOM      1  C   ALA A   1       6.661  22.242  -3.679  0.00  0.00    +0.238 C 
ATOM      2  N   ALA A   2       5.737  22.458  -2.763  0.00  0.00    -0.298 N 
ATOM      3  H   ALA A   2       5.942  23.057  -1.938  0.00  0.00    +0.150 HD
ATOM      4  O   ALA A   1       6.426  21.598  -4.676  0.00  0.00    -0.274 OA
ENDROOT
BRANCH   1   5
ATOM      5  CA  ALA A   1       8.031  22.853  -3.446  0.00  0.00    +0.145 C 
ATOM      6  CB  ALA A   1       8.760  22.086  -2.428  0.00  0.00    +0.028 C 
BRANCH   5   7
ATOM      7  N   ALA A   1       7.885  24.220  -3.013  0.00  0.00    -0.238 NA
ATOM      8  H   ALA A   1       8.202  24.503  -2.064  0.00  0.00    +0.142 HD
ENDBRANCH   5   7
ENDBRANCH   1   5
BRANCH   2   9
ATOM      9  CA  ALA A   2       4.435  21.850  -2.922  0.00  0.00    +0.137 C 
ATOM     10  CB  ALA A   2       3.527  22.204  -1.779  0.00  0.00    +0.030 C 
BRANCH   9  11
ATOM     11  C   ALA A   2       3.819  22.264  -4.253  0.00  0.00    +0.227 C 
ATOM     12  O   ALA A   2       3.245  21.438  -4.944  0.00  0.00    -0.286 OA
ENDBRANCH   9  11
ENDBRANCH   2   9
TORSDOF 4
REMARK  Name = ../refined-set-2016/1td7/1td7_pocket.pdb
REMARK  139 active torsions:
REMARK  status: ('A' for Active; 'I' for Inactive)
REMARK    1  A    between atoms: _1  and  _3
REMARK    2  A    between atoms: _3  and  _4
REMARK    3  A    between atoms: _3  and  _6
REMARK    4  A    between atoms: _6  and  _7
REMARK    5  A    between atoms: _10  and  _12
REMARK    6  A    between atoms: _12  and  _13
REMARK    7  A    between atoms: _12  and  _15
REMARK    8  A    between atoms: _15  and  _16
REMARK    9  A    between atoms: _21  and  _22
REMARK   10  A    between atoms: _24  and  _26
REMARK   11  A    between atoms: _26  and  _27
REMARK   12  A    between atoms: _26  and  _29
REMARK   13  A    between atoms: _29  and  _30
REMARK   14  A    between atoms: _36  and  _38
REMARK   15  A    between atoms: _38  and  _39
REMARK   16  A    between atoms: _38  and  _41
REMARK   17  A    between atoms: _41  and  _42
REMARK   18  A    between atoms: _42  and  _43
REMARK   19  A    between atoms: _43  and  _44
REMARK   20  A    between atoms: _44  and  _45
REMARK   21  A    between atoms: _49  and  _51
REMARK   22  A    between atoms: _51  and  _52
REMARK   23  A    between atoms: _51  and  _54
REMARK   24  A    between atoms: _54  and  _55
REMARK   25  A    between atoms: _60  and  _62
REMARK   26  A    between atoms: _62  and  _63
REMARK   27  A    between atoms: _62  and  _65
REMARK   28  A    between atoms: _65  and  _66
REMARK   29  A    between atoms: _69  and  _71
REMARK   30  A    between atoms: _71  and  _72
REMARK   31  A    between atoms: _71  and  _74
REMARK   32  A    between atoms: _74  and  _75
REMARK   33  A    between atoms: _75  and  _76
REMARK   34  A    between atoms: _81  and  _83
REMARK   35  A    between atoms: _83  and  _84
REMARK   36  A    between atoms: _83  and  _86
REMARK   37  A    between atoms: _86  and  _87
REMARK   38  A    between atoms: _89  and  _91
REMARK   39  A    between atoms: _91  and  _92
REMARK   40  A    between atoms: _91  and  _94
REMARK   41  A    between atoms: _94  and  _95
REMARK   42  A    between atoms: _105  and  _107
REMARK   43  A    between atoms: _107  and  _108
REMARK   44  A    between atoms: _107  and  _110
REMARK   45  A    between atoms: _110  and  _111
REMARK   46  A    between atoms: _111  and  _112
REMARK   47  A    between atoms: _117  and  _119
REMARK   48  A    between atoms: _119  and  _120
REMARK   49  A    between atoms: _119  and  _122
REMARK   50  A    between atoms: _122  and  _123
REMARK   51  A    between atoms: _126  and  _128
REMARK   52  A    between atoms: _128  and  _129
REMARK   53  A    between atoms: _128  and  _131
REMARK   54  A    between atoms: _131  and  _132
REMARK   55  A    between atoms: _138  and  _140
REMARK   56  A    between atoms: _140  and  _141
REMARK   57  A    between atoms: _144  and  _146
REMARK   58  A    between atoms: _146  and  _147
REMARK   59  A    between atoms: _146  and  _149
REMARK   60  A    between atoms: _149  and  _150
REMARK   61  A    between atoms: _153  and  _155
REMARK   62  A    between atoms: _155  and  _156
REMARK   63  A    between atoms: _155  and  _158
REMARK   64  A    between atoms: _158  and  _159
REMARK   65  A    between atoms: _164  and  _165
REMARK   66  A    between atoms: _167  and  _169
REMARK   67  A    between atoms: _169  and  _170
REMARK   68  A    between atoms: _169  and  _172
REMARK   69  A    between atoms: _172  and  _173
REMARK   70  A    between atoms: _178  and  _179
REMARK   71  A    between atoms: _181  and  _183
REMARK   72  A    between atoms: _183  and  _184
REMARK   73  A    between atoms: _183  and  _186
REMARK   74  A    between atoms: _186  and  _187
REMARK   75  A    between atoms: _187  and  _233
REMARK   76  A    between atoms: _188  and  _190
REMARK   77  A    between atoms: _190  and  _191
REMARK   78  A    between atoms: _191  and  _192
REMARK   79  A    between atoms: _191  and  _193
REMARK   80  A    between atoms: _192  and  CA_339
REMARK   81  A    between atoms: _193  and  _195
REMARK   82  A    between atoms: _195  and  _196
REMARK   83  A    between atoms: _195  and  _198
REMARK   84  A    between atoms: _198  and  _199
REMARK   85  A    between atoms: _199  and  _200
REMARK   86  A    between atoms: _200  and  _201
REMARK   87  A    between atoms: _201  and  _202
REMARK   88  A    between atoms: _206  and  _208
REMARK   89  A    between atoms: _208  and  _209
REMARK   90  A    between atoms: _211  and  _213
REMARK   91  A    between atoms: _213  and  _214
REMARK   92  A    between atoms: _213  and  _216
REMARK   93  A    between atoms: _216  and  _217
REMARK   94  A    between atoms: _220  and  _222
REMARK   95  A    between atoms: _222  and  _223
REMARK   96  A    between atoms: _222  and  _225
REMARK   97  A    between atoms: _227  and  _229
REMARK   98  A    between atoms: _229  and  _230
REMARK   99  A    between atoms: _229  and  _232
REMARK  100  A    between atoms: _232  and  _233
REMARK  101  A    between atoms: _234  and  _236
REMARK  102  A    between atoms: _236  and  _237
REMARK  103  A    between atoms: _236  and  _239
REMARK  104  A    between atoms: _239  and  _240
REMARK  105  A    between atoms: _240  and  _241
REMARK  106  A    between atoms: _246  and  _248
REMARK  107  A    between atoms: _248  and  _249
REMARK  108  A    between atoms: _248  and  _251
REMARK  109  A    between atoms: _251  and  _252
REMARK  110  A    between atoms: _257  and  _259
REMARK  111  A    between atoms: _259  and  _260
REMARK  112  A    between atoms: _259  and  _262
REMARK  113  A    between atoms: _262  and  _263
REMARK  114  A    between atoms: _266  and  _268
REMARK  115  A    between atoms: _268  and  _269
REMARK  116  A    between atoms: _268  and  _271
REMARK  117  A    between atoms: _271  and  _272
REMARK  118  A    between atoms: _277  and  _278
REMARK  119  A    between atoms: _280  and  _282
REMARK  120  A    between atoms: _282  and  _283
REMARK  121  A    between atoms: _282  and  _285
REMARK  122  A    between atoms: _285  and  _286
REMARK  123  A    between atoms: _291  and  _292
REMARK  124  A    between atoms: _294  and  _296
REMARK  125  A    between atoms: _296  and  _297
REMARK  126  A    between atoms: _296  and  _299
REMARK  127  A    between atoms: _299  and  _300
REMARK  128  A    between atoms: _306  and  _308
REMARK  129  A    between atoms: _308  and  _309
REMARK  130  A    between atoms: _308  and  _311
REMARK  131  A    between atoms: _311  and  _312
REMARK  132  A    between atoms: _315  and  _317
REMARK  133  A    between atoms: _317  and  _318
REMARK  134  A    between atoms: _321  and  _323
REMARK  135  A    between atoms: _323  and  _324
REMARK  136  A    between atoms: _327  and  _329
REMARK  137  A    between atoms: _329  and  _330
REMARK  138  A    between atoms: _329  and  _332
REMARK  139  A    between atoms: _332  and  _333
REMARK                            x       y       z     vdW  Elec       q    Type
REMARK                         _______ _______ _______ _____ _____    ______ ____
ROOT
ATOM      1  CB  PHE A   1       4.836  18.580  -5.813  0.00  0.00    +0.051 C 
ENDROOT
BRANCH   1   2
ATOM      2  CG  PHE A   1       6.067  18.279  -5.029  0.00  0.00    -0.020 A 
ATOM      3  CD2 PHE A   1       5.996  17.474  -3.914  0.00  0.00    -0.004 A 
ATOM      4  CE2 PHE A   1       7.114  17.221  -3.169  0.00  0.00    -0.000 A 
ATOM      5  CZ  PHE A   1       8.318  17.766  -3.533  0.00  0.00    -0.000 A 
ATOM      6  CE1 PHE A   1       8.402  18.573  -4.635  0.00  0.00    -0.000 A 
ATOM      7  CD1 PHE A   1       7.284  18.829  -5.374  0.00  0.00    -0.004 A 
ENDBRANCH   1   2
BRANCH   1   8
ATOM      8  CA  PHE A   1       5.102  19.151  -7.203  0.00  0.00    +0.137 C 
BRANCH   8   9
ATOM      9  N   PHE A   1       5.550  20.547  -7.115  0.00  0.00    -0.239 NA
ATOM     10  H   PHE A   1       5.732  20.969  -6.182  0.00  0.00    +0.142 HD
ENDBRANCH   8   9
BRANCH   8  11
ATOM     11  C   PHE A   1       3.838  18.945  -8.052  0.00  0.00    +0.224 C 
ATOM     12  O   PHE A   1       3.741  18.013  -8.834  0.00  0.00    -0.287 OA
ENDBRANCH   8  11
ENDBRANCH   1   8
TORSDOF 4
REMARK  Name = ../refined-set-2016/1td7/1td7_pocket.pdb
REMARK  139 active torsions:
REMARK  status: ('A' for Active; 'I' for Inactive)
REMARK    1  A    between atoms: _1  and  _3
REMARK    2  A    between atoms: _3  and  _4
REMARK    3  A    between atoms: _3  and  _6
REMARK    4  A    between atoms: _6  and  _7
REMARK    5  A    between atoms: _10  and  _12
REMARK    6  A    between atoms: _12  and  _13
REMARK    7  A    between atoms: _12  and  _15
REMARK    8  A    between atoms: _15  and  _16
REMARK    9  A    between atoms: _21  and  _22
REMARK   10  A    between atoms: _24  and  _26
REMARK   11  A    between atoms: _26  and  _27
REMARK   12  A    between atoms: _26  and  _29
REMARK   13  A    between atoms: _29  and  _30
REMARK   14  A    between atoms: _36  and  _38
REMARK   15  A    between atoms: _38  and  _39
REMARK   16  A    between atoms: _38  and  _41
REMARK   17  A    between atoms: _41  and  _42
REMARK   18  A    between atoms: _42  and  _43
REMARK   19  A    between atoms: _43  and  _44
REMARK   20  A    between atoms: _44  and  _45
REMARK   21  A    between atoms: _49  and  _51
REMARK   22  A    between atoms: _51  and  _52
REMARK   23  A    between atoms: _51  and  _54
REMARK   24  A    between atoms: _54  and  _55
REMARK   25  A    between atoms: _60  and  _62
REMARK   26  A    between atoms: _62  and  _63
REMARK   27  A    between atoms: _62  and  _65
REMARK   28  A    between atoms: _65  and  _66
REMARK   29  A    between atoms: _69  and  _71
REMARK   30  A    between atoms: _71  and  _72
REMARK   31  A    between atoms: _71  and  _74
REMARK   32  A    between atoms: _74  and  _75
REMARK   33  A    between atoms: _75  and  _76
REMARK   34  A    between atoms: _81  and  _83
REMARK   35  A    between atoms: _83  and  _84
REMARK   36  A    between atoms: _83  and  _86
REMARK   37  A    between atoms: _86  and  _87
REMARK   38  A    between atoms: _89  and  _91
REMARK   39  A    between atoms: _91  and  _92
REMARK   40  A    between atoms: _91  and  _94
REMARK   41  A    between atoms: _94  and  _95
REMARK   42  A    between atoms: _105  and  _107
REMARK   43  A    between atoms: _107  and  _108
REMARK   44  A    between atoms: _107  and  _110
REMARK   45  A    between atoms: _110  and  _111
REMARK   46  A    between atoms: _111  and  _112
REMARK   47  A    between atoms: _117  and  _119
REMARK   48  A    between atoms: _119  and  _120
REMARK   49  A    between atoms: _119  and  _122
REMARK   50  A    between atoms: _122  and  _123
REMARK   51  A    between atoms: _126  and  _128
REMARK   52  A    between atoms: _128  and  _129
REMARK   53  A    between atoms: _128  and  _131
REMARK   54  A    between atoms: _131  and  _132
REMARK   55  A    between atoms: _138  and  _140
REMARK   56  A    between atoms: _140  and  _141
REMARK   57  A    between atoms: _144  and  _146
REMARK   58  A    between atoms: _146  and  _147
REMARK   59  A    between atoms: _146  and  _149
REMARK   60  A    between atoms: _149  and  _150
REMARK   61  A    between atoms: _153  and  _155
REMARK   62  A    between atoms: _155  and  _156
REMARK   63  A    between atoms: _155  and  _158
REMARK   64  A    between atoms: _158  and  _159
REMARK   65  A    between atoms: _164  and  _165
REMARK   66  A    between atoms: _167  and  _169
REMARK   67  A    between atoms: _169  and  _170
REMARK   68  A    between atoms: _169  and  _172
REMARK   69  A    between atoms: _172  and  _173
REMARK   70  A    between atoms: _178  and  _179
REMARK   71  A    between atoms: _181  and  _183
REMARK   72  A    between atoms: _183  and  _184
REMARK   73  A    between atoms: _183  and  _186
REMARK   74  A    between atoms: _186  and  _187
REMARK   75  A    between atoms: _187  and  _233
REMARK   76  A    between atoms: _188  and  _190
REMARK   77  A    between atoms: _190  and  _191
REMARK   78  A    between atoms: _191  and  _192
REMARK   79  A    between atoms: _191  and  _193
REMARK   80  A    between atoms: _192  and  CA_339
REMARK   81  A    between atoms: _193  and  _195
REMARK   82  A    between atoms: _195  and  _196
REMARK   83  A    between atoms: _195  and  _198
REMARK   84  A    between atoms: _198  and  _199
REMARK   85  A    between atoms: _199  and  _200
REMARK   86  A    between atoms: _200  and  _201
REMARK   87  A    between atoms: _201  and  _202
REMARK   88  A    between atoms: _206  and  _208
REMARK   89  A    between atoms: _208  and  _209
REMARK   90  A    between atoms: _211  and  _213
REMARK   91  A    between atoms: _213  and  _214
REMARK   92  A    between atoms: _213  and  _216
REMARK   93  A    between atoms: _216  and  _217
REMARK   94  A    between atoms: _220  and  _222
REMARK   95  A    between atoms: _222  and  _223
REMARK   96  A    between atoms: _222  and  _225
REMARK   97  A    between atoms: _227  and  _229
REMARK   98  A    between atoms: _229  and  _230
REMARK   99  A    between atoms: _229  and  _232
REMARK  100  A    between atoms: _232  and  _233
REMARK  101  A    between atoms: _234  and  _236
REMARK  102  A    between atoms: _236  and  _237
REMARK  103  A    between atoms: _236  and  _239
REMARK  104  A    between atoms: _239  and  _240
REMARK  105  A    between atoms: _240  and  _241
REMARK  106  A    between atoms: _246  and  _248
REMARK  107  A    between atoms: _248  and  _249
REMARK  108  A    between atoms: _248  and  _251
REMARK  109  A    between atoms: _251  and  _252
REMARK  110  A    between atoms: _257  and  _259
REMARK  111  A    between atoms: _259  and  _260
REMARK  112  A    between atoms: _259  and  _262
REMARK  113  A    between atoms: _262  and  _263
REMARK  114  A    between atoms: _266  and  _268
REMARK  115  A    between atoms: _268  and  _269
REMARK  116  A    between atoms: _268  and  _271
REMARK  117  A    between atoms: _271  and  _272
REMARK  118  A    between atoms: _277  and  _278
REMARK  119  A    between atoms: _280  and  _282
REMARK  120  A    between atoms: _282  and  _283
REMARK  121  A    between atoms: _282  and  _285
REMARK  122  A    between atoms: _285  and  _286
REMARK  123  A    between atoms: _291  and  _292
REMARK  124  A    between atoms: _294  and  _296
REMARK  125  A    between atoms: _296  and  _297
REMARK  126  A    between atoms: _296  and  _299
REMARK  127  A    between atoms: _299  and  _300
REMARK  128  A    between atoms: _306  and  _308
REMARK  129  A    between atoms: _308  and  _309
REMARK  130  A    between atoms: _308  and  _311
REMARK  131  A    between atoms: _311  and  _312
REMARK  132  A    between atoms: _315  and  _317
REMARK  133  A    between atoms: _317  and  _318
REMARK  134  A    between atoms: _321  and  _323
REMARK  135  A    between atoms: _323  and  _324
REMARK  136  A    between atoms: _327  and  _329
REMARK  137  A    between atoms: _329  and  _330
REMARK  138  A    between atoms: _329  and  _332
REMARK  139  A    between atoms: _332  and  _333
REMARK                            x       y       z     vdW  Elec       q    Type
REMARK                         _______ _______ _______ _____ _____    ______ ____
ROOT
ATOM      1  O   HOH     1      15.765  10.232  -3.264  0.00  0.00    +0.000 OA
ENDROOT
TORSDOF 0
REMARK  Name = ../refined-set-2016/1td7/1td7_pocket.pdb
REMARK  139 active torsions:
REMARK  status: ('A' for Active; 'I' for Inactive)
REMARK    1  A    between atoms: _1  and  _3
REMARK    2  A    between atoms: _3  and  _4
REMARK    3  A    between atoms: _3  and  _6
REMARK    4  A    between atoms: _6  and  _7
REMARK    5  A    between atoms: _10  and  _12
REMARK    6  A    between atoms: _12  and  _13
REMARK    7  A    between atoms: _12  and  _15
REMARK    8  A    between atoms: _15  and  _16
REMARK    9  A    between atoms: _21  and  _22
REMARK   10  A    between atoms: _24  and  _26
REMARK   11  A    between atoms: _26  and  _27
REMARK   12  A    between atoms: _26  and  _29
REMARK   13  A    between atoms: _29  and  _30
REMARK   14  A    between atoms: _36  and  _38
REMARK   15  A    between atoms: _38  and  _39
REMARK   16  A    between atoms: _38  and  _41
REMARK   17  A    between atoms: _41  and  _42
REMARK   18  A    between atoms: _42  and  _43
REMARK   19  A    between atoms: _43  and  _44
REMARK   20  A    between atoms: _44  and  _45
REMARK   21  A    between atoms: _49  and  _51
REMARK   22  A    between atoms: _51  and  _52
REMARK   23  A    between atoms: _51  and  _54
REMARK   24  A    between atoms: _54  and  _55
REMARK   25  A    between atoms: _60  and  _62
REMARK   26  A    between atoms: _62  and  _63
REMARK   27  A    between atoms: _62  and  _65
REMARK   28  A    between atoms: _65  and  _66
REMARK   29  A    between atoms: _69  and  _71
REMARK   30  A    between atoms: _71  and  _72
REMARK   31  A    between atoms: _71  and  _74
REMARK   32  A    between atoms: _74  and  _75
REMARK   33  A    between atoms: _75  and  _76
REMARK   34  A    between atoms: _81  and  _83
REMARK   35  A    between atoms: _83  and  _84
REMARK   36  A    between atoms: _83  and  _86
REMARK   37  A    between atoms: _86  and  _87
REMARK   38  A    between atoms: _89  and  _91
REMARK   39  A    between atoms: _91  and  _92
REMARK   40  A    between atoms: _91  and  _94
REMARK   41  A    between atoms: _94  and  _95
REMARK   42  A    between atoms: _105  and  _107
REMARK   43  A    between atoms: _107  and  _108
REMARK   44  A    between atoms: _107  and  _110
REMARK   45  A    between atoms: _110  and  _111
REMARK   46  A    between atoms: _111  and  _112
REMARK   47  A    between atoms: _117  and  _119
REMARK   48  A    between atoms: _119  and  _120
REMARK   49  A    between atoms: _119  and  _122
REMARK   50  A    between atoms: _122  and  _123
REMARK   51  A    between atoms: _126  and  _128
REMARK   52  A    between atoms: _128  and  _129
REMARK   53  A    between atoms: _128  and  _131
REMARK   54  A    between atoms: _131  and  _132
REMARK   55  A    between atoms: _138  and  _140
REMARK   56  A    between atoms: _140  and  _141
REMARK   57  A    between atoms: _144  and  _146
REMARK   58  A    between atoms: _146  and  _147
REMARK   59  A    between atoms: _146  and  _149
REMARK   60  A    between atoms: _149  and  _150
REMARK   61  A    between atoms: _153  and  _155
REMARK   62  A    between atoms: _155  and  _156
REMARK   63  A    between atoms: _155  and  _158
REMARK   64  A    between atoms: _158  and  _159
REMARK   65  A    between atoms: _164  and  _165
REMARK   66  A    between atoms: _167  and  _169
REMARK   67  A    between atoms: _169  and  _170
REMARK   68  A    between atoms: _169  and  _172
REMARK   69  A    between atoms: _172  and  _173
REMARK   70  A    between atoms: _178  and  _179
REMARK   71  A    between atoms: _181  and  _183
REMARK   72  A    between atoms: _183  and  _184
REMARK   73  A    between atoms: _183  and  _186
REMARK   74  A    between atoms: _186  and  _187
REMARK   75  A    between atoms: _187  and  _233
REMARK   76  A    between atoms: _188  and  _190
REMARK   77  A    between atoms: _190  and  _191
REMARK   78  A    between atoms: _191  and  _192
REMARK   79  A    between atoms: _191  and  _193
REMARK   80  A    between atoms: _192  and  CA_339
REMARK   81  A    between atoms: _193  and  _195
REMARK   82  A    between atoms: _195  and  _196
REMARK   83  A    between atoms: _195  and  _198
REMARK   84  A    between atoms: _198  and  _199
REMARK   85  A    between atoms: _199  and  _200
REMARK   86  A    between atoms: _200  and  _201
REMARK   87  A    between atoms: _201  and  _202
REMARK   88  A    between atoms: _206  and  _208
REMARK   89  A    between atoms: _208  and  _209
REMARK   90  A    between atoms: _211  and  _213
REMARK   91  A    between atoms: _213  and  _214
REMARK   92  A    between atoms: _213  and  _216
REMARK   93  A    between atoms: _216  and  _217
REMARK   94  A    between atoms: _220  and  _222
REMARK   95  A    between atoms: _222  and  _223
REMARK   96  A    between atoms: _222  and  _225
REMARK   97  A    between atoms: _227  and  _229
REMARK   98  A    between atoms: _229  and  _230
REMARK   99  A    between atoms: _229  and  _232
REMARK  100  A    between atoms: _232  and  _233
REMARK  101  A    between atoms: _234  and  _236
REMARK  102  A    between atoms: _236  and  _237
REMARK  103  A    between atoms: _236  and  _239
REMARK  104  A    between atoms: _239  and  _240
REMARK  105  A    between atoms: _240  and  _241
REMARK  106  A    between atoms: _246  and  _248
REMARK  107  A    between atoms: _248  and  _249
REMARK  108  A    between atoms: _248  and  _251
REMARK  109  A    between atoms: _251  and  _252
REMARK  110  A    between atoms: _257  and  _259
REMARK  111  A    between atoms: _259  and  _260
REMARK  112  A    between atoms: _259  and  _262
REMARK  113  A    between atoms: _262  and  _263
REMARK  114  A    between atoms: _266  and  _268
REMARK  115  A    between atoms: _268  and  _269
REMARK  116  A    between atoms: _268  and  _271
REMARK  117  A    between atoms: _271  and  _272
REMARK  118  A    between atoms: _277  and  _278
REMARK  119  A    between atoms: _280  and  _282
REMARK  120  A    between atoms: _282  and  _283
REMARK  121  A    between atoms: _282  and  _285
REMARK  122  A    between atoms: _285  and  _286
REMARK  123  A    between atoms: _291  and  _292
REMARK  124  A    between atoms: _294  and  _296
REMARK  125  A    between atoms: _296  and  _297
REMARK  126  A    between atoms: _296  and  _299
REMARK  127  A    between atoms: _299  and  _300
REMARK  128  A    between atoms: _306  and  _308
REMARK  129  A    between atoms: _308  and  _309
REMARK  130  A    between atoms: _308  and  _311
REMARK  131  A    between atoms: _311  and  _312
REMARK  132  A    between atoms: _315  and  _317
REMARK  133  A    between atoms: _317  and  _318
REMARK  134  A    between atoms: _321  and  _323
REMARK  135  A    between atoms: _323  and  _324
REMARK  136  A    between atoms: _327  and  _329
REMARK  137  A    between atoms: _329  and  _330
REMARK  138  A    between atoms: _329  and  _332
REMARK  139  A    between atoms: _332  and  _333
REMARK                            x       y       z     vdW  Elec       q    Type
REMARK                         _______ _______ _______ _____ _____    ______ ____
ROOT
ATOM      1  O   HOH     1      12.677  17.810  -1.301  0.00  0.00    +0.000 OA
ENDROOT
TORSDOF 0
REMARK  Name = ../refined-set-2016/1td7/1td7_pocket.pdb
REMARK  139 active torsions:
REMARK  status: ('A' for Active; 'I' for Inactive)
REMARK    1  A    between atoms: _1  and  _3
REMARK    2  A    between atoms: _3  and  _4
REMARK    3  A    between atoms: _3  and  _6
REMARK    4  A    between atoms: _6  and  _7
REMARK    5  A    between atoms: _10  and  _12
REMARK    6  A    between atoms: _12  and  _13
REMARK    7  A    between atoms: _12  and  _15
REMARK    8  A    between atoms: _15  and  _16
REMARK    9  A    between atoms: _21  and  _22
REMARK   10  A    between atoms: _24  and  _26
REMARK   11  A    between atoms: _26  and  _27
REMARK   12  A    between atoms: _26  and  _29
REMARK   13  A    between atoms: _29  and  _30
REMARK   14  A    between atoms: _36  and  _38
REMARK   15  A    between atoms: _38  and  _39
REMARK   16  A    between atoms: _38  and  _41
REMARK   17  A    between atoms: _41  and  _42
REMARK   18  A    between atoms: _42  and  _43
REMARK   19  A    between atoms: _43  and  _44
REMARK   20  A    between atoms: _44  and  _45
REMARK   21  A    between atoms: _49  and  _51
REMARK   22  A    between atoms: _51  and  _52
REMARK   23  A    between atoms: _51  and  _54
REMARK   24  A    between atoms: _54  and  _55
REMARK   25  A    between atoms: _60  and  _62
REMARK   26  A    between atoms: _62  and  _63
REMARK   27  A    between atoms: _62  and  _65
REMARK   28  A    between atoms: _65  and  _66
REMARK   29  A    between atoms: _69  and  _71
REMARK   30  A    between atoms: _71  and  _72
REMARK   31  A    between atoms: _71  and  _74
REMARK   32  A    between atoms: _74  and  _75
REMARK   33  A    between atoms: _75  and  _76
REMARK   34  A    between atoms: _81  and  _83
REMARK   35  A    between atoms: _83  and  _84
REMARK   36  A    between atoms: _83  and  _86
REMARK   37  A    between atoms: _86  and  _87
REMARK   38  A    between atoms: _89  and  _91
REMARK   39  A    between atoms: _91  and  _92
REMARK   40  A    between atoms: _91  and  _94
REMARK   41  A    between atoms: _94  and  _95
REMARK   42  A    between atoms: _105  and  _107
REMARK   43  A    between atoms: _107  and  _108
REMARK   44  A    between atoms: _107  and  _110
REMARK   45  A    between atoms: _110  and  _111
REMARK   46  A    between atoms: _111  and  _112
REMARK   47  A    between atoms: _117  and  _119
REMARK   48  A    between atoms: _119  and  _120
REMARK   49  A    between atoms: _119  and  _122
REMARK   50  A    between atoms: _122  and  _123
REMARK   51  A    between atoms: _126  and  _128
REMARK   52  A    between atoms: _128  and  _129
REMARK   53  A    between atoms: _128  and  _131
REMARK   54  A    between atoms: _131  and  _132
REMARK   55  A    between atoms: _138  and  _140
REMARK   56  A    between atoms: _140  and  _141
REMARK   57  A    between atoms: _144  and  _146
REMARK   58  A    between atoms: _146  and  _147
REMARK   59  A    between atoms: _146  and  _149
REMARK   60  A    between atoms: _149  and  _150
REMARK   61  A    between atoms: _153  and  _155
REMARK   62  A    between atoms: _155  and  _156
REMARK   63  A    between atoms: _155  and  _158
REMARK   64  A    between atoms: _158  and  _159
REMARK   65  A    between atoms: _164  and  _165
REMARK   66  A    between atoms: _167  and  _169
REMARK   67  A    between atoms: _169  and  _170
REMARK   68  A    between atoms: _169  and  _172
REMARK   69  A    between atoms: _172  and  _173
REMARK   70  A    between atoms: _178  and  _179
REMARK   71  A    between atoms: _181  and  _183
REMARK   72  A    between atoms: _183  and  _184
REMARK   73  A    between atoms: _183  and  _186
REMARK   74  A    between atoms: _186  and  _187
REMARK   75  A    between atoms: _187  and  _233
REMARK   76  A    between atoms: _188  and  _190
REMARK   77  A    between atoms: _190  and  _191
REMARK   78  A    between atoms: _191  and  _192
REMARK   79  A    between atoms: _191  and  _193
REMARK   80  A    between atoms: _192  and  CA_339
REMARK   81  A    between atoms: _193  and  _195
REMARK   82  A    between atoms: _195  and  _196
REMARK   83  A    between atoms: _195  and  _198
REMARK   84  A    between atoms: _198  and  _199
REMARK   85  A    between atoms: _199  and  _200
REMARK   86  A    between atoms: _200  and  _201
REMARK   87  A    between atoms: _201  and  _202
REMARK   88  A    between atoms: _206  and  _208
REMARK   89  A    between atoms: _208  and  _209
REMARK   90  A    between atoms: _211  and  _213
REMARK   91  A    between atoms: _213  and  _214
REMARK   92  A    between atoms: _213  and  _216
REMARK   93  A    between atoms: _216  and  _217
REMARK   94  A    between atoms: _220  and  _222
REMARK   95  A    between atoms: _222  and  _223
REMARK   96  A    between atoms: _222  and  _225
REMARK   97  A    between atoms: _227  and  _229
REMARK   98  A    between atoms: _229  and  _230
REMARK   99  A    between atoms: _229  and  _232
REMARK  100  A    between atoms: _232  and  _233
REMARK  101  A    between atoms: _234  and  _236
REMARK  102  A    between atoms: _236  and  _237
REMARK  103  A    between atoms: _236  and  _239
REMARK  104  A    between atoms: _239  and  _240
REMARK  105  A    between atoms: _240  and  _241
REMARK  106  A    between atoms: _246  and  _248
REMARK  107  A    between atoms: _248  and  _249
REMARK  108  A    between atoms: _248  and  _251
REMARK  109  A    between atoms: _251  and  _252
REMARK  110  A    between atoms: _257  and  _259
REMARK  111  A    between atoms: _259  and  _260
REMARK  112  A    between atoms: _259  and  _262
REMARK  113  A    between atoms: _262  and  _263
REMARK  114  A    between atoms: _266  and  _268
REMARK  115  A    between atoms: _268  and  _269
REMARK  116  A    between atoms: _268  and  _271
REMARK  117  A    between atoms: _271  and  _272
REMARK  118  A    between atoms: _277  and  _278
REMARK  119  A    between atoms: _280  and  _282
REMARK  120  A    between atoms: _282  and  _283
REMARK  121  A    between atoms: _282  and  _285
REMARK  122  A    between atoms: _285  and  _286
REMARK  123  A    between atoms: _291  and  _292
REMARK  124  A    between atoms: _294  and  _296
REMARK  125  A    between atoms: _296  and  _297
REMARK  126  A    between atoms: _296  and  _299
REMARK  127  A    between atoms: _299  and  _300
REMARK  128  A    between atoms: _306  and  _308
REMARK  129  A    between atoms: _308  and  _309
REMARK  130  A    between atoms: _308  and  _311
REMARK  131  A    between atoms: _311  and  _312
REMARK  132  A    between atoms: _315  and  _317
REMARK  133  A    between atoms: _317  and  _318
REMARK  134  A    between atoms: _321  and  _323
REMARK  135  A    between atoms: _323  and  _324
REMARK  136  A    between atoms: _327  and  _329
REMARK  137  A    between atoms: _329  and  _330
REMARK  138  A    between atoms: _329  and  _332
REMARK  139  A    between atoms: _332  and  _333
REMARK                            x       y       z     vdW  Elec       q    Type
REMARK                         _______ _______ _______ _____ _____    ______ ____
ROOT
ATOM      1  O   HOH     1      13.387   6.995   2.944  0.00  0.00    +0.000 OA
ENDROOT
TORSDOF 0
REMARK  Name = ../refined-set-2016/1td7/1td7_pocket.pdb
REMARK  139 active torsions:
REMARK  status: ('A' for Active; 'I' for Inactive)
REMARK    1  A    between atoms: _1  and  _3
REMARK    2  A    between atoms: _3  and  _4
REMARK    3  A    between atoms: _3  and  _6
REMARK    4  A    between atoms: _6  and  _7
REMARK    5  A    between atoms: _10  and  _12
REMARK    6  A    between atoms: _12  and  _13
REMARK    7  A    between atoms: _12  and  _15
REMARK    8  A    between atoms: _15  and  _16
REMARK    9  A    between atoms: _21  and  _22
REMARK   10  A    between atoms: _24  and  _26
REMARK   11  A    between atoms: _26  and  _27
REMARK   12  A    between atoms: _26  and  _29
REMARK   13  A    between atoms: _29  and  _30
REMARK   14  A    between atoms: _36  and  _38
REMARK   15  A    between atoms: _38  and  _39
REMARK   16  A    between atoms: _38  and  _41
REMARK   17  A    between atoms: _41  and  _42
REMARK   18  A    between atoms: _42  and  _43
REMARK   19  A    between atoms: _43  and  _44
REMARK   20  A    between atoms: _44  and  _45
REMARK   21  A    between atoms: _49  and  _51
REMARK   22  A    between atoms: _51  and  _52
REMARK   23  A    between atoms: _51  and  _54
REMARK   24  A    between atoms: _54  and  _55
REMARK   25  A    between atoms: _60  and  _62
REMARK   26  A    between atoms: _62  and  _63
REMARK   27  A    between atoms: _62  and  _65
REMARK   28  A    between atoms: _65  and  _66
REMARK   29  A    between atoms: _69  and  _71
REMARK   30  A    between atoms: _71  and  _72
REMARK   31  A    between atoms: _71  and  _74
REMARK   32  A    between atoms: _74  and  _75
REMARK   33  A    between atoms: _75  and  _76
REMARK   34  A    between atoms: _81  and  _83
REMARK   35  A    between atoms: _83  and  _84
REMARK   36  A    between atoms: _83  and  _86
REMARK   37  A    between atoms: _86  and  _87
REMARK   38  A    between atoms: _89  and  _91
REMARK   39  A    between atoms: _91  and  _92
REMARK   40  A    between atoms: _91  and  _94
REMARK   41  A    between atoms: _94  and  _95
REMARK   42  A    between atoms: _105  and  _107
REMARK   43  A    between atoms: _107  and  _108
REMARK   44  A    between atoms: _107  and  _110
REMARK   45  A    between atoms: _110  and  _111
REMARK   46  A    between atoms: _111  and  _112
REMARK   47  A    between atoms: _117  and  _119
REMARK   48  A    between atoms: _119  and  _120
REMARK   49  A    between atoms: _119  and  _122
REMARK   50  A    between atoms: _122  and  _123
REMARK   51  A    between atoms: _126  and  _128
REMARK   52  A    between atoms: _128  and  _129
REMARK   53  A    between atoms: _128  and  _131
REMARK   54  A    between atoms: _131  and  _132
REMARK   55  A    between atoms: _138  and  _140
REMARK   56  A    between atoms: _140  and  _141
REMARK   57  A    between atoms: _144  and  _146
REMARK   58  A    between atoms: _146  and  _147
REMARK   59  A    between atoms: _146  and  _149
REMARK   60  A    between atoms: _149  and  _150
REMARK   61  A    between atoms: _153  and  _155
REMARK   62  A    between atoms: _155  and  _156
REMARK   63  A    between atoms: _155  and  _158
REMARK   64  A    between atoms: _158  and  _159
REMARK   65  A    between atoms: _164  and  _165
REMARK   66  A    between atoms: _167  and  _169
REMARK   67  A    between atoms: _169  and  _170
REMARK   68  A    between atoms: _169  and  _172
REMARK   69  A    between atoms: _172  and  _173
REMARK   70  A    between atoms: _178  and  _179
REMARK   71  A    between atoms: _181  and  _183
REMARK   72  A    between atoms: _183  and  _184
REMARK   73  A    between atoms: _183  and  _186
REMARK   74  A    between atoms: _186  and  _187
REMARK   75  A    between atoms: _187  and  _233
REMARK   76  A    between atoms: _188  and  _190
REMARK   77  A    between atoms: _190  and  _191
REMARK   78  A    between atoms: _191  and  _192
REMARK   79  A    between atoms: _191  and  _193
REMARK   80  A    between atoms: _192  and  CA_339
REMARK   81  A    between atoms: _193  and  _195
REMARK   82  A    between atoms: _195  and  _196
REMARK   83  A    between atoms: _195  and  _198
REMARK   84  A    between atoms: _198  and  _199
REMARK   85  A    between atoms: _199  and  _200
REMARK   86  A    between atoms: _200  and  _201
REMARK   87  A    between atoms: _201  and  _202
REMARK   88  A    between atoms: _206  and  _208
REMARK   89  A    between atoms: _208  and  _209
REMARK   90  A    between atoms: _211  and  _213
REMARK   91  A    between atoms: _213  and  _214
REMARK   92  A    between atoms: _213  and  _216
REMARK   93  A    between atoms: _216  and  _217
REMARK   94  A    between atoms: _220  and  _222
REMARK   95  A    between atoms: _222  and  _223
REMARK   96  A    between atoms: _222  and  _225
REMARK   97  A    between atoms: _227  and  _229
REMARK   98  A    between atoms: _229  and  _230
REMARK   99  A    between atoms: _229  and  _232
REMARK  100  A    between atoms: _232  and  _233
REMARK  101  A    between atoms: _234  and  _236
REMARK  102  A    between atoms: _236  and  _237
REMARK  103  A    between atoms: _236  and  _239
REMARK  104  A    between atoms: _239  and  _240
REMARK  105  A    between atoms: _240  and  _241
REMARK  106  A    between atoms: _246  and  _248
REMARK  107  A    between atoms: _248  and  _249
REMARK  108  A    between atoms: _248  and  _251
REMARK  109  A    between atoms: _251  and  _252
REMARK  110  A    between atoms: _257  and  _259
REMARK  111  A    between atoms: _259  and  _260
REMARK  112  A    between atoms: _259  and  _262
REMARK  113  A    between atoms: _262  and  _263
REMARK  114  A    between atoms: _266  and  _268
REMARK  115  A    between atoms: _268  and  _269
REMARK  116  A    between atoms: _268  and  _271
REMARK  117  A    between atoms: _271  and  _272
REMARK  118  A    between atoms: _277  and  _278
REMARK  119  A    between atoms: _280  and  _282
REMARK  120  A    between atoms: _282  and  _283
REMARK  121  A    between atoms: _282  and  _285
REMARK  122  A    between atoms: _285  and  _286
REMARK  123  A    between atoms: _291  and  _292
REMARK  124  A    between atoms: _294  and  _296
REMARK  125  A    between atoms: _296  and  _297
REMARK  126  A    between atoms: _296  and  _299
REMARK  127  A    between atoms: _299  and  _300
REMARK  128  A    between atoms: _306  and  _308
REMARK  129  A    between atoms: _308  and  _309
REMARK  130  A    between atoms: _308  and  _311
REMARK  131  A    between atoms: _311  and  _312
REMARK  132  A    between atoms: _315  and  _317
REMARK  133  A    between atoms: _317  and  _318
REMARK  134  A    between atoms: _321  and  _323
REMARK  135  A    between atoms: _323  and  _324
REMARK  136  A    between atoms: _327  and  _329
REMARK  137  A    between atoms: _329  and  _330
REMARK  138  A    between atoms: _329  and  _332
REMARK  139  A    between atoms: _332  and  _333
REMARK                            x       y       z     vdW  Elec       q    Type
REMARK                         _______ _______ _______ _____ _____    ______ ____
ROOT
ATOM      1  O   HOH     1      13.774  16.088   1.570  0.00  0.00    +0.000 OA
ENDROOT
TORSDOF 0
REMARK  Name = ../refined-set-2016/1td7/1td7_pocket.pdb
REMARK  139 active torsions:
REMARK  status: ('A' for Active; 'I' for Inactive)
REMARK    1  A    between atoms: _1  and  _3
REMARK    2  A    between atoms: _3  and  _4
REMARK    3  A    between atoms: _3  and  _6
REMARK    4  A    between atoms: _6  and  _7
REMARK    5  A    between atoms: _10  and  _12
REMARK    6  A    between atoms: _12  and  _13
REMARK    7  A    between atoms: _12  and  _15
REMARK    8  A    between atoms: _15  and  _16
REMARK    9  A    between atoms: _21  and  _22
REMARK   10  A    between atoms: _24  and  _26
REMARK   11  A    between atoms: _26  and  _27
REMARK   12  A    between atoms: _26  and  _29
REMARK   13  A    between atoms: _29  and  _30
REMARK   14  A    between atoms: _36  and  _38
REMARK   15  A    between atoms: _38  and  _39
REMARK   16  A    between atoms: _38  and  _41
REMARK   17  A    between atoms: _41  and  _42
REMARK   18  A    between atoms: _42  and  _43
REMARK   19  A    between atoms: _43  and  _44
REMARK   20  A    between atoms: _44  and  _45
REMARK   21  A    between atoms: _49  and  _51
REMARK   22  A    between atoms: _51  and  _52
REMARK   23  A    between atoms: _51  and  _54
REMARK   24  A    between atoms: _54  and  _55
REMARK   25  A    between atoms: _60  and  _62
REMARK   26  A    between atoms: _62  and  _63
REMARK   27  A    between atoms: _62  and  _65
REMARK   28  A    between atoms: _65  and  _66
REMARK   29  A    between atoms: _69  and  _71
REMARK   30  A    between atoms: _71  and  _72
REMARK   31  A    between atoms: _71  and  _74
REMARK   32  A    between atoms: _74  and  _75
REMARK   33  A    between atoms: _75  and  _76
REMARK   34  A    between atoms: _81  and  _83
REMARK   35  A    between atoms: _83  and  _84
REMARK   36  A    between atoms: _83  and  _86
REMARK   37  A    between atoms: _86  and  _87
REMARK   38  A    between atoms: _89  and  _91
REMARK   39  A    between atoms: _91  and  _92
REMARK   40  A    between atoms: _91  and  _94
REMARK   41  A    between atoms: _94  and  _95
REMARK   42  A    between atoms: _105  and  _107
REMARK   43  A    between atoms: _107  and  _108
REMARK   44  A    between atoms: _107  and  _110
REMARK   45  A    between atoms: _110  and  _111
REMARK   46  A    between atoms: _111  and  _112
REMARK   47  A    between atoms: _117  and  _119
REMARK   48  A    between atoms: _119  and  _120
REMARK   49  A    between atoms: _119  and  _122
REMARK   50  A    between atoms: _122  and  _123
REMARK   51  A    between atoms: _126  and  _128
REMARK   52  A    between atoms: _128  and  _129
REMARK   53  A    between atoms: _128  and  _131
REMARK   54  A    between atoms: _131  and  _132
REMARK   55  A    between atoms: _138  and  _140
REMARK   56  A    between atoms: _140  and  _141
REMARK   57  A    between atoms: _144  and  _146
REMARK   58  A    between atoms: _146  and  _147
REMARK   59  A    between atoms: _146  and  _149
REMARK   60  A    between atoms: _149  and  _150
REMARK   61  A    between atoms: _153  and  _155
REMARK   62  A    between atoms: _155  and  _156
REMARK   63  A    between atoms: _155  and  _158
REMARK   64  A    between atoms: _158  and  _159
REMARK   65  A    between atoms: _164  and  _165
REMARK   66  A    between atoms: _167  and  _169
REMARK   67  A    between atoms: _169  and  _170
REMARK   68  A    between atoms: _169  and  _172
REMARK   69  A    between atoms: _172  and  _173
REMARK   70  A    between atoms: _178  and  _179
REMARK   71  A    between atoms: _181  and  _183
REMARK   72  A    between atoms: _183  and  _184
REMARK   73  A    between atoms: _183  and  _186
REMARK   74  A    between atoms: _186  and  _187
REMARK   75  A    between atoms: _187  and  _233
REMARK   76  A    between atoms: _188  and  _190
REMARK   77  A    between atoms: _190  and  _191
REMARK   78  A    between atoms: _191  and  _192
REMARK   79  A    between atoms: _191  and  _193
REMARK   80  A    between atoms: _192  and  CA_339
REMARK   81  A    between atoms: _193  and  _195
REMARK   82  A    between atoms: _195  and  _196
REMARK   83  A    between atoms: _195  and  _198
REMARK   84  A    between atoms: _198  and  _199
REMARK   85  A    between atoms: _199  and  _200
REMARK   86  A    between atoms: _200  and  _201
REMARK   87  A    between atoms: _201  and  _202
REMARK   88  A    between atoms: _206  and  _208
REMARK   89  A    between atoms: _208  and  _209
REMARK   90  A    between atoms: _211  and  _213
REMARK   91  A    between atoms: _213  and  _214
REMARK   92  A    between atoms: _213  and  _216
REMARK   93  A    between atoms: _216  and  _217
REMARK   94  A    between atoms: _220  and  _222
REMARK   95  A    between atoms: _222  and  _223
REMARK   96  A    between atoms: _222  and  _225
REMARK   97  A    between atoms: _227  and  _229
REMARK   98  A    between atoms: _229  and  _230
REMARK   99  A    between atoms: _229  and  _232
REMARK  100  A    between atoms: _232  and  _233
REMARK  101  A    between atoms: _234  and  _236
REMARK  102  A    between atoms: _236  and  _237
REMARK  103  A    between atoms: _236  and  _239
REMARK  104  A    between atoms: _239  and  _240
REMARK  105  A    between atoms: _240  and  _241
REMARK  106  A    between atoms: _246  and  _248
REMARK  107  A    between atoms: _248  and  _249
REMARK  108  A    between atoms: _248  and  _251
REMARK  109  A    between atoms: _251  and  _252
REMARK  110  A    between atoms: _257  and  _259
REMARK  111  A    between atoms: _259  and  _260
REMARK  112  A    between atoms: _259  and  _262
REMARK  113  A    between atoms: _262  and  _263
REMARK  114  A    between atoms: _266  and  _268
REMARK  115  A    between atoms: _268  and  _269
REMARK  116  A    between atoms: _268  and  _271
REMARK  117  A    between atoms: _271  and  _272
REMARK  118  A    between atoms: _277  and  _278
REMARK  119  A    between atoms: _280  and  _282
REMARK  120  A    between atoms: _282  and  _283
REMARK  121  A    between atoms: _282  and  _285
REMARK  122  A    between atoms: _285  and  _286
REMARK  123  A    between atoms: _291  and  _292
REMARK  124  A    between atoms: _294  and  _296
REMARK  125  A    between atoms: _296  and  _297
REMARK  126  A    between atoms: _296  and  _299
REMARK  127  A    between atoms: _299  and  _300
REMARK  128  A    between atoms: _306  and  _308
REMARK  129  A    between atoms: _308  and  _309
REMARK  130  A    between atoms: _308  and  _311
REMARK  131  A    between atoms: _311  and  _312
REMARK  132  A    between atoms: _315  and  _317
REMARK  133  A    between atoms: _317  and  _318
REMARK  134  A    between atoms: _321  and  _323
REMARK  135  A    between atoms: _323  and  _324
REMARK  136  A    between atoms: _327  and  _329
REMARK  137  A    between atoms: _329  and  _330
REMARK  138  A    between atoms: _329  and  _332
REMARK  139  A    between atoms: _332  and  _333
REMARK                            x       y       z     vdW  Elec       q    Type
REMARK                         _______ _______ _______ _____ _____    ______ ____
ROOT
ATOM      1  O   HOH     1      11.211  11.175  10.953  0.00  0.00    +0.000 OA
ENDROOT
TORSDOF 0
REMARK  Name = ../refined-set-2016/1td7/1td7_pocket.pdb
REMARK  139 active torsions:
REMARK  status: ('A' for Active; 'I' for Inactive)
REMARK    1  A    between atoms: _1  and  _3
REMARK    2  A    between atoms: _3  and  _4
REMARK    3  A    between atoms: _3  and  _6
REMARK    4  A    between atoms: _6  and  _7
REMARK    5  A    between atoms: _10  and  _12
REMARK    6  A    between atoms: _12  and  _13
REMARK    7  A    between atoms: _12  and  _15
REMARK    8  A    between atoms: _15  and  _16
REMARK    9  A    between atoms: _21  and  _22
REMARK   10  A    between atoms: _24  and  _26
REMARK   11  A    between atoms: _26  and  _27
REMARK   12  A    between atoms: _26  and  _29
REMARK   13  A    between atoms: _29  and  _30
REMARK   14  A    between atoms: _36  and  _38
REMARK   15  A    between atoms: _38  and  _39
REMARK   16  A    between atoms: _38  and  _41
REMARK   17  A    between atoms: _41  and  _42
REMARK   18  A    between atoms: _42  and  _43
REMARK   19  A    between atoms: _43  and  _44
REMARK   20  A    between atoms: _44  and  _45
REMARK   21  A    between atoms: _49  and  _51
REMARK   22  A    between atoms: _51  and  _52
REMARK   23  A    between atoms: _51  and  _54
REMARK   24  A    between atoms: _54  and  _55
REMARK   25  A    between atoms: _60  and  _62
REMARK   26  A    between atoms: _62  and  _63
REMARK   27  A    between atoms: _62  and  _65
REMARK   28  A    between atoms: _65  and  _66
REMARK   29  A    between atoms: _69  and  _71
REMARK   30  A    between atoms: _71  and  _72
REMARK   31  A    between atoms: _71  and  _74
REMARK   32  A    between atoms: _74  and  _75
REMARK   33  A    between atoms: _75  and  _76
REMARK   34  A    between atoms: _81  and  _83
REMARK   35  A    between atoms: _83  and  _84
REMARK   36  A    between atoms: _83  and  _86
REMARK   37  A    between atoms: _86  and  _87
REMARK   38  A    between atoms: _89  and  _91
REMARK   39  A    between atoms: _91  and  _92
REMARK   40  A    between atoms: _91  and  _94
REMARK   41  A    between atoms: _94  and  _95
REMARK   42  A    between atoms: _105  and  _107
REMARK   43  A    between atoms: _107  and  _108
REMARK   44  A    between atoms: _107  and  _110
REMARK   45  A    between atoms: _110  and  _111
REMARK   46  A    between atoms: _111  and  _112
REMARK   47  A    between atoms: _117  and  _119
REMARK   48  A    between atoms: _119  and  _120
REMARK   49  A    between atoms: _119  and  _122
REMARK   50  A    between atoms: _122  and  _123
REMARK   51  A    between atoms: _126  and  _128
REMARK   52  A    between atoms: _128  and  _129
REMARK   53  A    between atoms: _128  and  _131
REMARK   54  A    between atoms: _131  and  _132
REMARK   55  A    between atoms: _138  and  _140
REMARK   56  A    between atoms: _140  and  _141
REMARK   57  A    between atoms: _144  and  _146
REMARK   58  A    between atoms: _146  and  _147
REMARK   59  A    between atoms: _146  and  _149
REMARK   60  A    between atoms: _149  and  _150
REMARK   61  A    between atoms: _153  and  _155
REMARK   62  A    between atoms: _155  and  _156
REMARK   63  A    between atoms: _155  and  _158
REMARK   64  A    between atoms: _158  and  _159
REMARK   65  A    between atoms: _164  and  _165
REMARK   66  A    between atoms: _167  and  _169
REMARK   67  A    between atoms: _169  and  _170
REMARK   68  A    between atoms: _169  and  _172
REMARK   69  A    between atoms: _172  and  _173
REMARK   70  A    between atoms: _178  and  _179
REMARK   71  A    between atoms: _181  and  _183
REMARK   72  A    between atoms: _183  and  _184
REMARK   73  A    between atoms: _183  and  _186
REMARK   74  A    between atoms: _186  and  _187
REMARK   75  A    between atoms: _187  and  _233
REMARK   76  A    between atoms: _188  and  _190
REMARK   77  A    between atoms: _190  and  _191
REMARK   78  A    between atoms: _191  and  _192
REMARK   79  A    between atoms: _191  and  _193
REMARK   80  A    between atoms: _192  and  CA_339
REMARK   81  A    between atoms: _193  and  _195
REMARK   82  A    between atoms: _195  and  _196
REMARK   83  A    between atoms: _195  and  _198
REMARK   84  A    between atoms: _198  and  _199
REMARK   85  A    between atoms: _199  and  _200
REMARK   86  A    between atoms: _200  and  _201
REMARK   87  A    between atoms: _201  and  _202
REMARK   88  A    between atoms: _206  and  _208
REMARK   89  A    between atoms: _208  and  _209
REMARK   90  A    between atoms: _211  and  _213
REMARK   91  A    between atoms: _213  and  _214
REMARK   92  A    between atoms: _213  and  _216
REMARK   93  A    between atoms: _216  and  _217
REMARK   94  A    between atoms: _220  and  _222
REMARK   95  A    between atoms: _222  and  _223
REMARK   96  A    between atoms: _222  and  _225
REMARK   97  A    between atoms: _227  and  _229
REMARK   98  A    between atoms: _229  and  _230
REMARK   99  A    between atoms: _229  and  _232
REMARK  100  A    between atoms: _232  and  _233
REMARK  101  A    between atoms: _234  and  _236
REMARK  102  A    between atoms: _236  and  _237
REMARK  103  A    between atoms: _236  and  _239
REMARK  104  A    between atoms: _239  and  _240
REMARK  105  A    between atoms: _240  and  _241
REMARK  106  A    between atoms: _246  and  _248
REMARK  107  A    between atoms: _248  and  _249
REMARK  108  A    between atoms: _248  and  _251
REMARK  109  A    between atoms: _251  and  _252
REMARK  110  A    between atoms: _257  and  _259
REMARK  111  A    between atoms: _259  and  _260
REMARK  112  A    between atoms: _259  and  _262
REMARK  113  A    between atoms: _262  and  _263
REMARK  114  A    between atoms: _266  and  _268
REMARK  115  A    between atoms: _268  and  _269
REMARK  116  A    between atoms: _268  and  _271
REMARK  117  A    between atoms: _271  and  _272
REMARK  118  A    between atoms: _277  and  _278
REMARK  119  A    between atoms: _280  and  _282
REMARK  120  A    between atoms: _282  and  _283
REMARK  121  A    between atoms: _282  and  _285
REMARK  122  A    between atoms: _285  and  _286
REMARK  123  A    between atoms: _291  and  _292
REMARK  124  A    between atoms: _294  and  _296
REMARK  125  A    between atoms: _296  and  _297
REMARK  126  A    between atoms: _296  and  _299
REMARK  127  A    between atoms: _299  and  _300
REMARK  128  A    between atoms: _306  and  _308
REMARK  129  A    between atoms: _308  and  _309
REMARK  130  A    between atoms: _308  and  _311
REMARK  131  A    between atoms: _311  and  _312
REMARK  132  A    between atoms: _315  and  _317
REMARK  133  A    between atoms: _317  and  _318
REMARK  134  A    between atoms: _321  and  _323
REMARK  135  A    between atoms: _323  and  _324
REMARK  136  A    between atoms: _327  and  _329
REMARK  137  A    between atoms: _329  and  _330
REMARK  138  A    between atoms: _329  and  _332
REMARK  139  A    between atoms: _332  and  _333
REMARK                            x       y       z     vdW  Elec       q    Type
REMARK                         _______ _______ _______ _____ _____    ______ ____
ROOT
ATOM      1  O   HOH     1      10.975   7.923   8.852  0.00  0.00    +0.000 OA
ENDROOT
TORSDOF 0
REMARK  Name = ../refined-set-2016/1td7/1td7_pocket.pdb
REMARK  139 active torsions:
REMARK  status: ('A' for Active; 'I' for Inactive)
REMARK    1  A    between atoms: _1  and  _3
REMARK    2  A    between atoms: _3  and  _4
REMARK    3  A    between atoms: _3  and  _6
REMARK    4  A    between atoms: _6  and  _7
REMARK    5  A    between atoms: _10  and  _12
REMARK    6  A    between atoms: _12  and  _13
REMARK    7  A    between atoms: _12  and  _15
REMARK    8  A    between atoms: _15  and  _16
REMARK    9  A    between atoms: _21  and  _22
REMARK   10  A    between atoms: _24  and  _26
REMARK   11  A    between atoms: _26  and  _27
REMARK   12  A    between atoms: _26  and  _29
REMARK   13  A    between atoms: _29  and  _30
REMARK   14  A    between atoms: _36  and  _38
REMARK   15  A    between atoms: _38  and  _39
REMARK   16  A    between atoms: _38  and  _41
REMARK   17  A    between atoms: _41  and  _42
REMARK   18  A    between atoms: _42  and  _43
REMARK   19  A    between atoms: _43  and  _44
REMARK   20  A    between atoms: _44  and  _45
REMARK   21  A    between atoms: _49  and  _51
REMARK   22  A    between atoms: _51  and  _52
REMARK   23  A    between atoms: _51  and  _54
REMARK   24  A    between atoms: _54  and  _55
REMARK   25  A    between atoms: _60  and  _62
REMARK   26  A    between atoms: _62  and  _63
REMARK   27  A    between atoms: _62  and  _65
REMARK   28  A    between atoms: _65  and  _66
REMARK   29  A    between atoms: _69  and  _71
REMARK   30  A    between atoms: _71  and  _72
REMARK   31  A    between atoms: _71  and  _74
REMARK   32  A    between atoms: _74  and  _75
REMARK   33  A    between atoms: _75  and  _76
REMARK   34  A    between atoms: _81  and  _83
REMARK   35  A    between atoms: _83  and  _84
REMARK   36  A    between atoms: _83  and  _86
REMARK   37  A    between atoms: _86  and  _87
REMARK   38  A    between atoms: _89  and  _91
REMARK   39  A    between atoms: _91  and  _92
REMARK   40  A    between atoms: _91  and  _94
REMARK   41  A    between atoms: _94  and  _95
REMARK   42  A    between atoms: _105  and  _107
REMARK   43  A    between atoms: _107  and  _108
REMARK   44  A    between atoms: _107  and  _110
REMARK   45  A    between atoms: _110  and  _111
REMARK   46  A    between atoms: _111  and  _112
REMARK   47  A    between atoms: _117  and  _119
REMARK   48  A    between atoms: _119  and  _120
REMARK   49  A    between atoms: _119  and  _122
REMARK   50  A    between atoms: _122  and  _123
REMARK   51  A    between atoms: _126  and  _128
REMARK   52  A    between atoms: _128  and  _129
REMARK   53  A    between atoms: _128  and  _131
REMARK   54  A    between atoms: _131  and  _132
REMARK   55  A    between atoms: _138  and  _140
REMARK   56  A    between atoms: _140  and  _141
REMARK   57  A    between atoms: _144  and  _146
REMARK   58  A    between atoms: _146  and  _147
REMARK   59  A    between atoms: _146  and  _149
REMARK   60  A    between atoms: _149  and  _150
REMARK   61  A    between atoms: _153  and  _155
REMARK   62  A    between atoms: _155  and  _156
REMARK   63  A    between atoms: _155  and  _158
REMARK   64  A    between atoms: _158  and  _159
REMARK   65  A    between atoms: _164  and  _165
REMARK   66  A    between atoms: _167  and  _169
REMARK   67  A    between atoms: _169  and  _170
REMARK   68  A    between atoms: _169  and  _172
REMARK   69  A    between atoms: _172  and  _173
REMARK   70  A    between atoms: _178  and  _179
REMARK   71  A    between atoms: _181  and  _183
REMARK   72  A    between atoms: _183  and  _184
REMARK   73  A    between atoms: _183  and  _186
REMARK   74  A    between atoms: _186  and  _187
REMARK   75  A    between atoms: _187  and  _233
REMARK   76  A    between atoms: _188  and  _190
REMARK   77  A    between atoms: _190  and  _191
REMARK   78  A    between atoms: _191  and  _192
REMARK   79  A    between atoms: _191  and  _193
REMARK   80  A    between atoms: _192  and  CA_339
REMARK   81  A    between atoms: _193  and  _195
REMARK   82  A    between atoms: _195  and  _196
REMARK   83  A    between atoms: _195  and  _198
REMARK   84  A    between atoms: _198  and  _199
REMARK   85  A    between atoms: _199  and  _200
REMARK   86  A    between atoms: _200  and  _201
REMARK   87  A    between atoms: _201  and  _202
REMARK   88  A    between atoms: _206  and  _208
REMARK   89  A    between atoms: _208  and  _209
REMARK   90  A    between atoms: _211  and  _213
REMARK   91  A    between atoms: _213  and  _214
REMARK   92  A    between atoms: _213  and  _216
REMARK   93  A    between atoms: _216  and  _217
REMARK   94  A    between atoms: _220  and  _222
REMARK   95  A    between atoms: _222  and  _223
REMARK   96  A    between atoms: _222  and  _225
REMARK   97  A    between atoms: _227  and  _229
REMARK   98  A    between atoms: _229  and  _230
REMARK   99  A    between atoms: _229  and  _232
REMARK  100  A    between atoms: _232  and  _233
REMARK  101  A    between atoms: _234  and  _236
REMARK  102  A    between atoms: _236  and  _237
REMARK  103  A    between atoms: _236  and  _239
REMARK  104  A    between atoms: _239  and  _240
REMARK  105  A    between atoms: _240  and  _241
REMARK  106  A    between atoms: _246  and  _248
REMARK  107  A    between atoms: _248  and  _249
REMARK  108  A    between atoms: _248  and  _251
REMARK  109  A    between atoms: _251  and  _252
REMARK  110  A    between atoms: _257  and  _259
REMARK  111  A    between atoms: _259  and  _260
REMARK  112  A    between atoms: _259  and  _262
REMARK  113  A    between atoms: _262  and  _263
REMARK  114  A    between atoms: _266  and  _268
REMARK  115  A    between atoms: _268  and  _269
REMARK  116  A    between atoms: _268  and  _271
REMARK  117  A    between atoms: _271  and  _272
REMARK  118  A    between atoms: _277  and  _278
REMARK  119  A    between atoms: _280  and  _282
REMARK  120  A    between atoms: _282  and  _283
REMARK  121  A    between atoms: _282  and  _285
REMARK  122  A    between atoms: _285  and  _286
REMARK  123  A    between atoms: _291  and  _292
REMARK  124  A    between atoms: _294  and  _296
REMARK  125  A    between atoms: _296  and  _297
REMARK  126  A    between atoms: _296  and  _299
REMARK  127  A    between atoms: _299  and  _300
REMARK  128  A    between atoms: _306  and  _308
REMARK  129  A    between atoms: _308  and  _309
REMARK  130  A    between atoms: _308  and  _311
REMARK  131  A    between atoms: _311  and  _312
REMARK  132  A    between atoms: _315  and  _317
REMARK  133  A    between atoms: _317  and  _318
REMARK  134  A    between atoms: _321  and  _323
REMARK  135  A    between atoms: _323  and  _324
REMARK  136  A    between atoms: _327  and  _329
REMARK  137  A    between atoms: _329  and  _330
REMARK  138  A    between atoms: _329  and  _332
REMARK  139  A    between atoms: _332  and  _333
REMARK                            x       y       z     vdW  Elec       q    Type
REMARK                         _______ _______ _______ _____ _____    ______ ____
ROOT
ATOM      1  O   HOH     1       9.551   5.650  10.507  0.00  0.00    +0.000 OA
ENDROOT
TORSDOF 0
