REMARK  Name = ../refined-set-2016/2xb8/2xb8_pocket.pdb
REMARK  234 active torsions:
REMARK  status: ('A' for Active; 'I' for Inactive)
REMARK    1  A    between atoms: _1  and  _3
REMARK    2  A    between atoms: _3  and  _4
REMARK    3  A    between atoms: _3  and  _6
REMARK    4  A    between atoms: _6  and  _7
REMARK    5  A    between atoms: _12  and  _14
REMARK    6  A    between atoms: _14  and  _15
REMARK    7  A    between atoms: _18  and  _19
REMARK    8  A    between atoms: _24  and  _26
REMARK    9  A    between atoms: _26  and  _27
REMARK   10  A    between atoms: _26  and  _29
REMARK   11  A    between atoms: _29  and  _30
REMARK   12  A    between atoms: _35  and  _37
REMARK   13  A    between atoms: _37  and  _38
REMARK   14  A    between atoms: _37  and  _40
REMARK   15  A    between atoms: _40  and  _41
REMARK   16  A    between atoms: _44  and  _46
REMARK   17  A    between atoms: _46  and  _47
REMARK   18  A    between atoms: _49  and  _51
REMARK   19  A    between atoms: _51  and  _52
REMARK   20  A    between atoms: _51  and  _54
REMARK   21  A    between atoms: _54  and  _55
REMARK   22  A    between atoms: _55  and  _56
REMARK   23  A    between atoms: _56  and  _57
REMARK   24  A    between atoms: _66  and  _68
REMARK   25  A    between atoms: _68  and  _69
REMARK   26  A    between atoms: _68  and  _71
REMARK   27  A    between atoms: _71  and  _72
REMARK   28  A    between atoms: _75  and  _77
REMARK   29  A    between atoms: _77  and  _78
REMARK   30  A    between atoms: _80  and  _82
REMARK   31  A    between atoms: _82  and  _83
REMARK   32  A    between atoms: _82  and  _85
REMARK   33  A    between atoms: _85  and  _86
REMARK   34  A    between atoms: _86  and  _87
REMARK   35  A    between atoms: _87  and  _88
REMARK   36  A    between atoms: _97  and  _99
REMARK   37  A    between atoms: _99  and  _100
REMARK   38  A    between atoms: _99  and  _102
REMARK   39  A    between atoms: _102  and  _103
REMARK   40  A    between atoms: _103  and  _104
REMARK   41  A    between atoms: _104  and  _105
REMARK   42  A    between atoms: _114  and  _116
REMARK   43  A    between atoms: _116  and  _117
REMARK   44  A    between atoms: _116  and  _119
REMARK   45  A    between atoms: _119  and  _120
REMARK   46  A    between atoms: _120  and  _121
REMARK   47  A    between atoms: _125  and  _126
REMARK   48  A    between atoms: _131  and  _133
REMARK   49  A    between atoms: _133  and  _134
REMARK   50  A    between atoms: _133  and  _136
REMARK   51  A    between atoms: _139  and  _141
REMARK   52  A    between atoms: _141  and  _142
REMARK   53  A    between atoms: _141  and  _144
REMARK   54  A    between atoms: _144  and  _145
REMARK   55  A    between atoms: _150  and  _151
REMARK   56  A    between atoms: _153  and  _155
REMARK   57  A    between atoms: _155  and  _156
REMARK   58  A    between atoms: _158  and  _160
REMARK   59  A    between atoms: _160  and  _161
REMARK   60  A    between atoms: _160  and  _163
REMARK   61  A    between atoms: _163  and  _164
REMARK   62  A    between atoms: _167  and  _169
REMARK   63  A    between atoms: _169  and  _170
REMARK   64  A    between atoms: _169  and  _172
REMARK   65  A    between atoms: _172  and  _173
REMARK   66  A    between atoms: _176  and  _178
REMARK   67  A    between atoms: _178  and  _179
REMARK   68  A    between atoms: _178  and  _181
REMARK   69  A    between atoms: _181  and  _182
REMARK   70  A    between atoms: _187  and  _189
REMARK   71  A    between atoms: _189  and  _190
REMARK   72  A    between atoms: _189  and  _192
REMARK   73  A    between atoms: _192  and  _193
REMARK   74  A    between atoms: _196  and  _198
REMARK   75  A    between atoms: _198  and  _199
REMARK   76  A    between atoms: _198  and  _201
REMARK   77  A    between atoms: _201  and  _202
REMARK   78  A    between atoms: _202  and  _203
REMARK   79  A    between atoms: _208  and  _210
REMARK   80  A    between atoms: _210  and  _211
REMARK   81  A    between atoms: _210  and  _213
REMARK   82  A    between atoms: _213  and  _214
REMARK   83  A    between atoms: _217  and  _219
REMARK   84  A    between atoms: _219  and  _220
REMARK   85  A    between atoms: _219  and  _222
REMARK   86  A    between atoms: _222  and  _223
REMARK   87  A    between atoms: _228  and  _230
REMARK   88  A    between atoms: _230  and  _231
REMARK   89  A    between atoms: _234  and  _236
REMARK   90  A    between atoms: _236  and  _237
REMARK   91  A    between atoms: _239  and  _241
REMARK   92  A    between atoms: _241  and  _242
REMARK   93  A    between atoms: _244  and  _246
REMARK   94  A    between atoms: _246  and  _247
REMARK   95  A    between atoms: _246  and  _249
REMARK   96  A    between atoms: _249  and  _250
REMARK   97  A    between atoms: _253  and  _255
REMARK   98  A    between atoms: _255  and  _256
REMARK   99  A    between atoms: _255  and  _258
REMARK  100  A    between atoms: _258  and  _259
REMARK  101  A    between atoms: _262  and  _264
REMARK  102  A    between atoms: _264  and  _265
REMARK  103  A    between atoms: _264  and  _267
REMARK  104  A    between atoms: _267  and  _268
REMARK  105  A    between atoms: _273  and  _275
REMARK  106  A    between atoms: _275  and  _276
REMARK  107  A    between atoms: _275  and  _278
REMARK  108  A    between atoms: _278  and  _279
REMARK  109  A    between atoms: _282  and  _284
REMARK  110  A    between atoms: _284  and  _285
REMARK  111  A    between atoms: _284  and  _287
REMARK  112  A    between atoms: _287  and  _288
REMARK  113  A    between atoms: _288  and  _289
REMARK  114  A    between atoms: _292  and  _294
REMARK  115  A    between atoms: _294  and  _295
REMARK  116  A    between atoms: _294  and  _297
REMARK  117  A    between atoms: _300  and  _302
REMARK  118  A    between atoms: _302  and  _303
REMARK  119  A    between atoms: _302  and  _305
REMARK  120  A    between atoms: _305  and  _306
REMARK  121  A    between atoms: _311  and  _313
REMARK  122  A    between atoms: _313  and  _314
REMARK  123  A    between atoms: _313  and  _316
REMARK  124  A    between atoms: _316  and  _317
REMARK  125  A    between atoms: _320  and  _322
REMARK  126  A    between atoms: _322  and  _323
REMARK  127  A    between atoms: _322  and  _325
REMARK  128  A    between atoms: _325  and  _326
REMARK  129  A    between atoms: _328  and  _330
REMARK  130  A    between atoms: _330  and  _331
REMARK  131  A    between atoms: _330  and  _333
REMARK  132  A    between atoms: _333  and  _334
REMARK  133  A    between atoms: _339  and  _341
REMARK  134  A    between atoms: _341  and  _342
REMARK  135  A    between atoms: _341  and  _344
REMARK  136  A    between atoms: _347  and  _349
REMARK  137  A    between atoms: _349  and  _350
REMARK  138  A    between atoms: _349  and  _352
REMARK  139  A    between atoms: _352  and  _353
REMARK  140  A    between atoms: _358  and  _360
REMARK  141  A    between atoms: _360  and  _361
REMARK  142  A    between atoms: _360  and  _363
REMARK  143  A    between atoms: _363  and  _364
REMARK  144  A    between atoms: _364  and  _365
REMARK  145  A    between atoms: _365  and  _366
REMARK  146  A    between atoms: _375  and  _377
REMARK  147  A    between atoms: _377  and  _378
REMARK  148  A    between atoms: _377  and  _380
REMARK  149  A    between atoms: _380  and  _381
REMARK  150  A    between atoms: _381  and  _382
REMARK  151  A    between atoms: _385  and  _387
REMARK  152  A    between atoms: _387  and  _388
REMARK  153  A    between atoms: _387  and  _390
REMARK  154  A    between atoms: _390  and  _391
REMARK  155  A    between atoms: _397  and  _399
REMARK  156  A    between atoms: _399  and  _400
REMARK  157  A    between atoms: _399  and  _402
REMARK  158  A    between atoms: _402  and  _403
REMARK  159  A    between atoms: _403  and  _404
REMARK  160  A    between atoms: _404  and  _405
REMARK  161  A    between atoms: _414  and  _416
REMARK  162  A    between atoms: _416  and  _417
REMARK  163  A    between atoms: _416  and  _419
REMARK  164  A    between atoms: _419  and  _420
REMARK  165  A    between atoms: _420  and  _421
REMARK  166  A    between atoms: _421  and  _422
REMARK  167  A    between atoms: _431  and  _433
REMARK  168  A    between atoms: _433  and  _434
REMARK  169  A    between atoms: _433  and  _436
REMARK  170  A    between atoms: _436  and  _437
REMARK  171  A    between atoms: _442  and  _444
REMARK  172  A    between atoms: _444  and  _445
REMARK  173  A    between atoms: _444  and  _447
REMARK  174  A    between atoms: _447  and  _448
REMARK  175  A    between atoms: _450  and  _452
REMARK  176  A    between atoms: _452  and  _453
REMARK  177  A    between atoms: _452  and  _455
REMARK  178  A    between atoms: _455  and  _456
REMARK  179  A    between atoms: _459  and  _461
REMARK  180  A    between atoms: _461  and  _462
REMARK  181  A    between atoms: _461  and  _464
REMARK  182  A    between atoms: _464  and  _465
REMARK  183  A    between atoms: _468  and  _470
REMARK  184  A    between atoms: _470  and  _471
REMARK  185  A    between atoms: _470  and  _473
REMARK  186  A    between atoms: _476  and  _478
REMARK  187  A    between atoms: _478  and  _479
REMARK  188  A    between atoms: _481  and  _483
REMARK  189  A    between atoms: _483  and  _484
REMARK  190  A    between atoms: _483  and  _486
REMARK  191  A    between atoms: _486  and  _487
REMARK  192  A    between atoms: _490  and  _492
REMARK  193  A    between atoms: _492  and  _493
REMARK  194  A    between atoms: _495  and  _497
REMARK  195  A    between atoms: _497  and  _498
REMARK  196  A    between atoms: _497  and  _500
REMARK  197  A    between atoms: _500  and  _501
REMARK  198  A    between atoms: _504  and  _506
REMARK  199  A    between atoms: _506  and  _507
REMARK  200  A    between atoms: _506  and  _509
REMARK  201  A    between atoms: _509  and  _510
REMARK  202  A    between atoms: _515  and  _516
REMARK  203  A    between atoms: _518  and  _520
REMARK  204  A    between atoms: _520  and  _521
REMARK  205  A    between atoms: _520  and  _523
REMARK  206  A    between atoms: _523  and  _524
REMARK  207  A    between atoms: _529  and  _531
REMARK  208  A    between atoms: _531  and  _532
REMARK  209  A    between atoms: _531  and  _534
REMARK  210  A    between atoms: _537  and  _539
REMARK  211  A    between atoms: _539  and  _540
REMARK  212  A    between atoms: _543  and  _545
REMARK  213  A    between atoms: _545  and  _546
REMARK  214  A    between atoms: _545  and  _548
REMARK  215  A    between atoms: _548  and  _549
REMARK  216  A    between atoms: _552  and  _554
REMARK  217  A    between atoms: _554  and  _555
REMARK  218  A    between atoms: _554  and  _557
REMARK  219  A    between atoms: _557  and  _558
REMARK  220  A    between atoms: _558  and  _559
REMARK  221  A    between atoms: _559  and  _560
REMARK  222  A    between atoms: _569  and  _571
REMARK  223  A    between atoms: _571  and  _572
REMARK  224  A    between atoms: _571  and  _574
REMARK  225  A    between atoms: _574  and  _575
REMARK  226  A    between atoms: _578  and  _580
REMARK  227  A    between atoms: _580  and  _581
REMARK  228  A    between atoms: _584  and  _586
REMARK  229  A    between atoms: _586  and  _587
REMARK  230  A    between atoms: _590  and  _592
REMARK  231  A    between atoms: _592  and  _593
REMARK  232  A    between atoms: _592  and  _595
REMARK  233  A    between atoms: _595  and  _596
REMARK  234  A    between atoms: _596  and  _597
REMARK                            x       y       z     vdW  Elec       q    Type
REMARK                         _______ _______ _______ _____ _____    ______ ____
ROOT
ATOM      1  C   ARG A   7      21.762   3.171  33.127  0.00  0.00    +0.241 C 
ATOM      2  O   ARG A   7      22.322   2.079  33.181  0.00  0.00    -0.273 OA
ATOM      3  N   LEU A   8      20.587   3.351  32.545  0.00  0.00    -0.297 N 
ATOM      4  H   LEU A   8      20.197   4.314  32.508  0.00  0.00    +0.150 HD
ENDROOT
BRANCH   1   5
ATOM      5  CA  ARG A   7      22.377   4.414  33.791  0.00  0.00    +0.149 C 
BRANCH   5   7
ATOM      6  C   GLY A   6      21.549   6.440  32.667  0.00  0.00    +0.243 C 
ATOM      7  N   ARG A   7      21.501   5.590  33.689  0.00  0.00    -0.297 N 
ATOM      8  H   ARG A   7      20.813   5.765  34.449  0.00  0.00    +0.150 HD
ATOM      9  O   GLY A   6      22.314   6.284  31.724  0.00  0.00    -0.273 OA
BRANCH   6  10
ATOM     10  CA  GLY A   6      20.591   7.635  32.685  0.00  0.00    +0.176 C 
BRANCH  10  12
ATOM     11  C   LEU A   5      18.529   6.634  33.485  0.00  0.00    +0.241 C 
ATOM     12  N   GLY A   6      19.481   7.545  33.637  0.00  0.00    -0.295 N 
ATOM     13  H   GLY A   6      19.439   8.203  34.441  0.00  0.00    +0.150 HD
ATOM     14  O   LEU A   5      18.465   5.937  32.476  0.00  0.00    -0.273 OA
BRANCH  11  15
ATOM     15  CA  LEU A   5      17.547   6.430  34.658  0.00  0.00    +0.149 C 
BRANCH  15  18
ATOM     16  C   ASN A   4      19.046   6.337  36.565  0.00  0.00    +0.241 C 
ATOM     17  O   ASN A   4      19.690   5.371  36.079  0.00  0.00    -0.273 OA
ATOM     18  N   LEU A   5      18.038   6.938  35.924  0.00  0.00    -0.297 N 
ATOM     19  H   LEU A   5      17.599   7.784  36.341  0.00  0.00    +0.150 HD
BRANCH  16  20
ATOM     20  CA  ASN A   4      19.462   6.925  37.908  0.00  0.00    +0.158 C 
BRANCH  20  23
ATOM     21  C   PRO A   3      17.659   8.445  38.688  0.00  0.00    +0.241 C 
ATOM     22  O   PRO A   3      16.802   7.567  38.779  0.00  0.00    -0.273 OA
ATOM     23  N   ASN A   4      18.898   8.257  38.203  0.00  0.00    -0.297 N 
ATOM     24  H   ASN A   4      19.490   9.093  38.026  0.00  0.00    +0.150 HD
BRANCH  21  30
ATOM     25  C   GLY A   2      15.561  10.263  37.501  0.00  0.00    +0.246 C 
ATOM     26  N   PRO A   3      15.990  10.307  38.773  0.00  0.00    -0.272 N 
ATOM     27  CD  PRO A   3      15.317  10.974  39.909  0.00  0.00    +0.094 C 
ATOM     28  CG  PRO A   3      16.328  10.920  41.016  0.00  0.00    +0.024 C 
ATOM     29  CB  PRO A   3      17.351   9.929  40.652  0.00  0.00    +0.031 C 
ATOM     30  CA  PRO A   3      17.337   9.858  39.124  0.00  0.00    +0.152 C 
ATOM     31  O   GLY A   2      16.200   9.684  36.622  0.00  0.00    -0.273 OA
BRANCH  25  32
ATOM     32  CA  GLY A   2      14.245  10.990  37.184  0.00  0.00    +0.176 C 
BRANCH  32  34
ATOM     33  C   ASN A   1      13.730  11.071  34.773  0.00  0.00    +0.239 C 
ATOM     34  N   GLY A   2      13.511  10.544  35.982  0.00  0.00    -0.296 N 
ATOM     35  H   GLY A   2      12.798   9.793  36.080  0.00  0.00    +0.150 HD
ATOM     36  O   ASN A   1      14.538  11.990  34.592  0.00  0.00    -0.274 OA
BRANCH  33  37
ATOM     37  CA  ASN A   1      12.918  10.463  33.589  0.00  0.00    +0.154 C 
BRANCH  37  38
ATOM     38  N   ASN A   1      12.294  11.488  32.760  0.00  0.00    -0.238 NA
ATOM     39  H   ASN A   1      12.905  12.072  32.153  0.00  0.00    +0.142 HD
ENDBRANCH  37  38
BRANCH  37  40
ATOM     40  CB  ASN A   1      13.808   9.581  32.721  0.00  0.00    +0.111 C 
BRANCH  40  41
ATOM     41  CG  ASN A   1      13.023   8.559  31.897  0.00  0.00    +0.221 C 
ATOM     42  OD1 ASN A   1      11.943   8.093  32.294  0.00  0.00    -0.275 OA
ATOM     43  ND2 ASN A   1      13.581   8.190  30.739  0.00  0.00    -0.329 N 
ATOM     44 HD21 ASN A   1      14.488   8.605  30.443  0.00  0.00    +0.145 HD
ATOM     45 HD22 ASN A   1      13.108   7.488  30.134  0.00  0.00    +0.145 HD
ENDBRANCH  40  41
ENDBRANCH  37  40
ENDBRANCH  33  37
ENDBRANCH  32  34
ENDBRANCH  25  32
ENDBRANCH  21  30
ENDBRANCH  20  23
BRANCH  20  46
ATOM     46  CB  ASN A   4      19.193   5.936  39.058  0.00  0.00    +0.114 C 
BRANCH  46  47
ATOM     47  CG  ASN A   4      19.861   6.370  40.361  0.00  0.00    +0.222 C 
ATOM     48  ND2 ASN A   4      19.087   6.514  41.444  0.00  0.00    -0.329 N 
ATOM     49 HD21 ASN A   4      19.506   6.820  42.346  0.00  0.00    +0.145 HD
ATOM     50 HD22 ASN A   4      18.067   6.320  41.384  0.00  0.00    +0.145 HD
ATOM     51  OD1 ASN A   4      21.062   6.585  40.381  0.00  0.00    -0.275 OA
ENDBRANCH  46  47
ENDBRANCH  20  46
ENDBRANCH  16  20
ENDBRANCH  15  18
BRANCH  15  52
ATOM     52  CB  LEU A   5      16.149   6.988  34.374  0.00  0.00    +0.029 C 
BRANCH  52  53
ATOM     53  CG  LEU A   5      15.088   6.117  35.093  0.00  0.00    +0.002 C 
ATOM     54  CD2 LEU A   5      13.881   6.910  35.637  0.00  0.00    +0.000 C 
ATOM     55  CD1 LEU A   5      14.647   4.962  34.181  0.00  0.00    +0.000 C 
ENDBRANCH  52  53
ENDBRANCH  15  52
ENDBRANCH  11  15
ENDBRANCH  10  12
ENDBRANCH   6  10
ENDBRANCH   5   7
BRANCH   5  56
ATOM     56  CB  ARG A   7      22.588   4.059  35.254  0.00  0.00    +0.033 C 
BRANCH  56  57
ATOM     57  CG  ARG A   7      22.864   5.235  36.158  0.00  0.00    +0.045 C 
BRANCH  57  58
ATOM     58  CD  ARG A   7      24.266   5.595  36.081  0.00  0.00    +0.174 C 
BRANCH  58  59
ATOM     59  NE  ARG A   7      25.065   4.507  36.634  0.00  0.00    -0.265 N 
ATOM     60  HE  ARG A   7      24.605   3.845  37.291  0.00  0.00    +0.259 HD
ATOM     61  CZ  ARG A   7      26.345   4.315  36.346  0.00  0.00    +0.342 C 
ATOM     62  NH2 ARG A   7      26.986   3.296  36.879  0.00  0.00    -0.292 N 
ATOM     63 HH21 ARG A   7      26.488   2.647  37.522  0.00  0.00    +0.255 HD
ATOM     64 HH22 ARG A   7      27.990   3.140  36.657  0.00  0.00    +0.255 HD
ATOM     65  NH1 ARG A   7      26.999   5.152  35.540  0.00  0.00    -0.292 N 
ATOM     66 HH11 ARG A   7      28.003   4.988  35.324  0.00  0.00    +0.255 HD
ATOM     67 HH12 ARG A   7      26.505   5.969  35.128  0.00  0.00    +0.255 HD
ENDBRANCH  58  59
ENDBRANCH  57  58
ENDBRANCH  56  57
ENDBRANCH   5  56
ENDBRANCH   1   5
BRANCH   3  68
ATOM     68  CA  LEU A   8      19.819   2.279  31.959  0.00  0.00    +0.149 C 
BRANCH  68  69
ATOM     69  C   LEU A   8      20.649   1.481  30.982  0.00  0.00    +0.241 C 
ATOM     70  N   GLY A   9      20.394   0.174  30.945  0.00  0.00    -0.295 N 
ATOM     71  H   GLY A   9      19.749  -0.231  31.653  0.00  0.00    +0.150 HD
ATOM     72  O   LEU A   8      21.512   2.034  30.291  0.00  0.00    -0.273 OA
BRANCH  70  73
ATOM     73  CA  GLY A   9      20.989  -0.714  29.944  0.00  0.00    +0.176 C 
BRANCH  73  74
ATOM     74  C   GLY A   9      22.449  -1.015  30.172  0.00  0.00    +0.243 C 
ATOM     75  N   ARG A  10      23.214   0.028  30.450  0.00  0.00    -0.297 N 
ATOM     76  H   ARG A  10      22.793   0.979  30.422  0.00  0.00    +0.150 HD
ATOM     77  O   GLY A   9      22.880  -2.160  30.082  0.00  0.00    -0.273 OA
BRANCH  75  78
ATOM     78  CA  ARG A  10      24.616  -0.104  30.792  0.00  0.00    +0.149 C 
BRANCH  78  79
ATOM     79  C   ARG A  10      24.703  -0.866  32.098  0.00  0.00    +0.241 C 
ATOM     80  N   ARG A  11      23.778  -0.583  33.014  0.00  0.00    -0.297 N 
ATOM     81  H   ARG A  11      23.084   0.170  32.829  0.00  0.00    +0.150 HD
ATOM     82  O   ARG A  10      25.570  -1.732  32.259  0.00  0.00    -0.273 OA
BRANCH  80  83
ATOM     83  CA  ARG A  11      23.727  -1.320  34.279  0.00  0.00    +0.149 C 
BRANCH  83  84
ATOM     84  C   ARG A  11      22.358  -1.910  34.647  0.00  0.00    +0.241 C 
ATOM     85  N   GLU A  12      22.388  -2.735  35.703  0.00  0.00    -0.297 N 
ATOM     86  H   GLU A  12      22.796  -2.379  36.591  0.00  0.00    +0.150 HD
ATOM     87  O   ARG A  11      21.337  -1.583  34.033  0.00  0.00    -0.273 OA
BRANCH  85  88
ATOM     88  CA  GLU A  12      21.873  -4.126  35.679  0.00  0.00    +0.149 C 
BRANCH  88  89
ATOM     89  C   GLU A  12      20.780  -4.495  34.670  0.00  0.00    +0.244 C 
ATOM     90  O   GLU A  12      19.588  -4.227  34.913  0.00  0.00    -0.273 OA
ATOM     91  N   PRO A  13      21.185  -5.151  33.552  0.00  0.00    -0.273 N 
ATOM     92  CD  PRO A  13      22.560  -5.493  33.123  0.00  0.00    +0.094 C 
ATOM     93  CG  PRO A  13      22.354  -6.675  32.224  0.00  0.00    +0.024 C 
ATOM     94  CB  PRO A  13      21.041  -6.377  31.531  0.00  0.00    +0.030 C 
ATOM     95  CA  PRO A  13      20.190  -5.624  32.583  0.00  0.00    +0.140 C 
BRANCH  95  96
ATOM     96  C   PRO A  13      19.117  -6.544  33.196  0.00  0.00    +0.227 C 
ATOM     97  O   PRO A  13      17.976  -6.537  32.723  0.00  0.00    -0.286 OA
ENDBRANCH  95  96
ENDBRANCH  88  89
BRANCH  88  98
ATOM     98  CB  GLU A  12      21.493  -4.649  37.074  0.00  0.00    +0.041 C 
BRANCH  98  99
ATOM     99  CG  GLU A  12      21.535  -6.200  37.134  0.00  0.00    +0.116 C 
BRANCH  99 100
ATOM    100  CD  GLU A  12      21.651  -6.744  38.549  0.00  0.00    +0.365 C 
ATOM    101  OE2 GLU A  12      20.844  -6.323  39.419  0.00  0.00    -0.246 OA
ATOM    102  OE1 GLU A  12      22.551  -7.594  38.778  0.00  0.00    -0.246 OA
ENDBRANCH  99 100
ENDBRANCH  98  99
ENDBRANCH  88  98
ENDBRANCH  85  88
ENDBRANCH  83  84
BRANCH  83 103
ATOM    103  CB  ARG A  11      24.415  -0.539  35.413  0.00  0.00    +0.033 C 
BRANCH 103 104
ATOM    104  CG  ARG A  11      25.837  -1.127  35.712  0.00  0.00    +0.045 C 
BRANCH 104 105
ATOM    105  CD  ARG A  11      26.873  -0.085  36.133  0.00  0.00    +0.174 C 
BRANCH 105 106
ATOM    106  NE  ARG A  11      28.247  -0.550  35.915  0.00  0.00    -0.265 N 
ATOM    107  CZ  ARG A  11      29.049  -1.078  36.848  0.00  0.00    +0.342 C 
ATOM    108  NH2 ARG A  11      28.650  -1.224  38.118  0.00  0.00    -0.292 N 
ATOM    109 HH21 ARG A  11      29.295  -1.638  38.821  0.00  0.00    +0.255 HD
ATOM    110 HH22 ARG A  11      27.695  -0.924  38.401  0.00  0.00    +0.255 HD
ATOM    111  NH1 ARG A  11      30.281  -1.470  36.501  0.00  0.00    -0.292 N 
ATOM    112 HH11 ARG A  11      30.916  -1.882  37.214  0.00  0.00    +0.255 HD
ATOM    113 HH12 ARG A  11      30.603  -1.363  35.518  0.00  0.00    +0.255 HD
ATOM    114  HE  ARG A  11      28.631  -0.462  34.953  0.00  0.00    +0.259 HD
ENDBRANCH 105 106
ENDBRANCH 104 105
ENDBRANCH 103 104
ENDBRANCH  83 103
ENDBRANCH  80  83
ENDBRANCH  78  79
BRANCH  78 115
ATOM    115  CB  ARG A  10      25.275   1.277  30.892  0.00  0.00    +0.033 C 
BRANCH 115 116
ATOM    116  CG  ARG A  10      24.914   2.222  29.689  0.00  0.00    +0.045 C 
BRANCH 116 117
ATOM    117  CD  ARG A  10      26.042   3.183  29.287  0.00  0.00    +0.174 C 
BRANCH 117 118
ATOM    118  NE  ARG A  10      26.866   3.552  30.444  0.00  0.00    -0.265 N 
ATOM    119  CZ  ARG A  10      26.628   4.567  31.279  0.00  0.00    +0.342 C 
ATOM    120  NH2 ARG A  10      27.461   4.779  32.295  0.00  0.00    -0.292 N 
ATOM    121 HH21 ARG A  10      27.289   5.565  32.953  0.00  0.00    +0.255 HD
ATOM    122 HH22 ARG A  10      28.284   4.158  32.431  0.00  0.00    +0.255 HD
ATOM    123  NH1 ARG A  10      25.585   5.378  31.108  0.00  0.00    -0.292 N 
ATOM    124 HH11 ARG A  10      25.421   6.161  31.772  0.00  0.00    +0.255 HD
ATOM    125 HH12 ARG A  10      24.935   5.228  30.310  0.00  0.00    +0.255 HD
ATOM    126  HE  ARG A  10      27.709   2.972  30.630  0.00  0.00    +0.259 HD
ENDBRANCH 117 118
ENDBRANCH 116 117
ENDBRANCH 115 116
ENDBRANCH  78 115
ENDBRANCH  75  78
ENDBRANCH  73  74
ENDBRANCH  70  73
ENDBRANCH  68  69
BRANCH  68 127
ATOM    127  CB  LEU A   8      18.611   2.874  31.233  0.00  0.00    +0.029 C 
BRANCH 127 128
ATOM    128  CG  LEU A   8      17.323   2.077  31.145  0.00  0.00    +0.002 C 
ATOM    129  CD2 LEU A   8      16.939   1.434  32.498  0.00  0.00    +0.000 C 
ATOM    130  CD1 LEU A   8      16.225   3.017  30.607  0.00  0.00    +0.000 C 
ENDBRANCH 127 128
ENDBRANCH  68 127
ENDBRANCH   3  68
TORSDOF 47
REMARK  Name = ../refined-set-2016/2xb8/2xb8_pocket.pdb
REMARK  234 active torsions:
REMARK  status: ('A' for Active; 'I' for Inactive)
REMARK    1  A    between atoms: _1  and  _3
REMARK    2  A    between atoms: _3  and  _4
REMARK    3  A    between atoms: _3  and  _6
REMARK    4  A    between atoms: _6  and  _7
REMARK    5  A    between atoms: _12  and  _14
REMARK    6  A    between atoms: _14  and  _15
REMARK    7  A    between atoms: _18  and  _19
REMARK    8  A    between atoms: _24  and  _26
REMARK    9  A    between atoms: _26  and  _27
REMARK   10  A    between atoms: _26  and  _29
REMARK   11  A    between atoms: _29  and  _30
REMARK   12  A    between atoms: _35  and  _37
REMARK   13  A    between atoms: _37  and  _38
REMARK   14  A    between atoms: _37  and  _40
REMARK   15  A    between atoms: _40  and  _41
REMARK   16  A    between atoms: _44  and  _46
REMARK   17  A    between atoms: _46  and  _47
REMARK   18  A    between atoms: _49  and  _51
REMARK   19  A    between atoms: _51  and  _52
REMARK   20  A    between atoms: _51  and  _54
REMARK   21  A    between atoms: _54  and  _55
REMARK   22  A    between atoms: _55  and  _56
REMARK   23  A    between atoms: _56  and  _57
REMARK   24  A    between atoms: _66  and  _68
REMARK   25  A    between atoms: _68  and  _69
REMARK   26  A    between atoms: _68  and  _71
REMARK   27  A    between atoms: _71  and  _72
REMARK   28  A    between atoms: _75  and  _77
REMARK   29  A    between atoms: _77  and  _78
REMARK   30  A    between atoms: _80  and  _82
REMARK   31  A    between atoms: _82  and  _83
REMARK   32  A    between atoms: _82  and  _85
REMARK   33  A    between atoms: _85  and  _86
REMARK   34  A    between atoms: _86  and  _87
REMARK   35  A    between atoms: _87  and  _88
REMARK   36  A    between atoms: _97  and  _99
REMARK   37  A    between atoms: _99  and  _100
REMARK   38  A    between atoms: _99  and  _102
REMARK   39  A    between atoms: _102  and  _103
REMARK   40  A    between atoms: _103  and  _104
REMARK   41  A    between atoms: _104  and  _105
REMARK   42  A    between atoms: _114  and  _116
REMARK   43  A    between atoms: _116  and  _117
REMARK   44  A    between atoms: _116  and  _119
REMARK   45  A    between atoms: _119  and  _120
REMARK   46  A    between atoms: _120  and  _121
REMARK   47  A    between atoms: _125  and  _126
REMARK   48  A    between atoms: _131  and  _133
REMARK   49  A    between atoms: _133  and  _134
REMARK   50  A    between atoms: _133  and  _136
REMARK   51  A    between atoms: _139  and  _141
REMARK   52  A    between atoms: _141  and  _142
REMARK   53  A    between atoms: _141  and  _144
REMARK   54  A    between atoms: _144  and  _145
REMARK   55  A    between atoms: _150  and  _151
REMARK   56  A    between atoms: _153  and  _155
REMARK   57  A    between atoms: _155  and  _156
REMARK   58  A    between atoms: _158  and  _160
REMARK   59  A    between atoms: _160  and  _161
REMARK   60  A    between atoms: _160  and  _163
REMARK   61  A    between atoms: _163  and  _164
REMARK   62  A    between atoms: _167  and  _169
REMARK   63  A    between atoms: _169  and  _170
REMARK   64  A    between atoms: _169  and  _172
REMARK   65  A    between atoms: _172  and  _173
REMARK   66  A    between atoms: _176  and  _178
REMARK   67  A    between atoms: _178  and  _179
REMARK   68  A    between atoms: _178  and  _181
REMARK   69  A    between atoms: _181  and  _182
REMARK   70  A    between atoms: _187  and  _189
REMARK   71  A    between atoms: _189  and  _190
REMARK   72  A    between atoms: _189  and  _192
REMARK   73  A    between atoms: _192  and  _193
REMARK   74  A    between atoms: _196  and  _198
REMARK   75  A    between atoms: _198  and  _199
REMARK   76  A    between atoms: _198  and  _201
REMARK   77  A    between atoms: _201  and  _202
REMARK   78  A    between atoms: _202  and  _203
REMARK   79  A    between atoms: _208  and  _210
REMARK   80  A    between atoms: _210  and  _211
REMARK   81  A    between atoms: _210  and  _213
REMARK   82  A    between atoms: _213  and  _214
REMARK   83  A    between atoms: _217  and  _219
REMARK   84  A    between atoms: _219  and  _220
REMARK   85  A    between atoms: _219  and  _222
REMARK   86  A    between atoms: _222  and  _223
REMARK   87  A    between atoms: _228  and  _230
REMARK   88  A    between atoms: _230  and  _231
REMARK   89  A    between atoms: _234  and  _236
REMARK   90  A    between atoms: _236  and  _237
REMARK   91  A    between atoms: _239  and  _241
REMARK   92  A    between atoms: _241  and  _242
REMARK   93  A    between atoms: _244  and  _246
REMARK   94  A    between atoms: _246  and  _247
REMARK   95  A    between atoms: _246  and  _249
REMARK   96  A    between atoms: _249  and  _250
REMARK   97  A    between atoms: _253  and  _255
REMARK   98  A    between atoms: _255  and  _256
REMARK   99  A    between atoms: _255  and  _258
REMARK  100  A    between atoms: _258  and  _259
REMARK  101  A    between atoms: _262  and  _264
REMARK  102  A    between atoms: _264  and  _265
REMARK  103  A    between atoms: _264  and  _267
REMARK  104  A    between atoms: _267  and  _268
REMARK  105  A    between atoms: _273  and  _275
REMARK  106  A    between atoms: _275  and  _276
REMARK  107  A    between atoms: _275  and  _278
REMARK  108  A    between atoms: _278  and  _279
REMARK  109  A    between atoms: _282  and  _284
REMARK  110  A    between atoms: _284  and  _285
REMARK  111  A    between atoms: _284  and  _287
REMARK  112  A    between atoms: _287  and  _288
REMARK  113  A    between atoms: _288  and  _289
REMARK  114  A    between atoms: _292  and  _294
REMARK  115  A    between atoms: _294  and  _295
REMARK  116  A    between atoms: _294  and  _297
REMARK  117  A    between atoms: _300  and  _302
REMARK  118  A    between atoms: _302  and  _303
REMARK  119  A    between atoms: _302  and  _305
REMARK  120  A    between atoms: _305  and  _306
REMARK  121  A    between atoms: _311  and  _313
REMARK  122  A    between atoms: _313  and  _314
REMARK  123  A    between atoms: _313  and  _316
REMARK  124  A    between atoms: _316  and  _317
REMARK  125  A    between atoms: _320  and  _322
REMARK  126  A    between atoms: _322  and  _323
REMARK  127  A    between atoms: _322  and  _325
REMARK  128  A    between atoms: _325  and  _326
REMARK  129  A    between atoms: _328  and  _330
REMARK  130  A    between atoms: _330  and  _331
REMARK  131  A    between atoms: _330  and  _333
REMARK  132  A    between atoms: _333  and  _334
REMARK  133  A    between atoms: _339  and  _341
REMARK  134  A    between atoms: _341  and  _342
REMARK  135  A    between atoms: _341  and  _344
REMARK  136  A    between atoms: _347  and  _349
REMARK  137  A    between atoms: _349  and  _350
REMARK  138  A    between atoms: _349  and  _352
REMARK  139  A    between atoms: _352  and  _353
REMARK  140  A    between atoms: _358  and  _360
REMARK  141  A    between atoms: _360  and  _361
REMARK  142  A    between atoms: _360  and  _363
REMARK  143  A    between atoms: _363  and  _364
REMARK  144  A    between atoms: _364  and  _365
REMARK  145  A    between atoms: _365  and  _366
REMARK  146  A    between atoms: _375  and  _377
REMARK  147  A    between atoms: _377  and  _378
REMARK  148  A    between atoms: _377  and  _380
REMARK  149  A    between atoms: _380  and  _381
REMARK  150  A    between atoms: _381  and  _382
REMARK  151  A    between atoms: _385  and  _387
REMARK  152  A    between atoms: _387  and  _388
REMARK  153  A    between atoms: _387  and  _390
REMARK  154  A    between atoms: _390  and  _391
REMARK  155  A    between atoms: _397  and  _399
REMARK  156  A    between atoms: _399  and  _400
REMARK  157  A    between atoms: _399  and  _402
REMARK  158  A    between atoms: _402  and  _403
REMARK  159  A    between atoms: _403  and  _404
REMARK  160  A    between atoms: _404  and  _405
REMARK  161  A    between atoms: _414  and  _416
REMARK  162  A    between atoms: _416  and  _417
REMARK  163  A    between atoms: _416  and  _419
REMARK  164  A    between atoms: _419  and  _420
REMARK  165  A    between atoms: _420  and  _421
REMARK  166  A    between atoms: _421  and  _422
REMARK  167  A    between atoms: _431  and  _433
REMARK  168  A    between atoms: _433  and  _434
REMARK  169  A    between atoms: _433  and  _436
REMARK  170  A    between atoms: _436  and  _437
REMARK  171  A    between atoms: _442  and  _444
REMARK  172  A    between atoms: _444  and  _445
REMARK  173  A    between atoms: _444  and  _447
REMARK  174  A    between atoms: _447  and  _448
REMARK  175  A    between atoms: _450  and  _452
REMARK  176  A    between atoms: _452  and  _453
REMARK  177  A    between atoms: _452  and  _455
REMARK  178  A    between atoms: _455  and  _456
REMARK  179  A    between atoms: _459  and  _461
REMARK  180  A    between atoms: _461  and  _462
REMARK  181  A    between atoms: _461  and  _464
REMARK  182  A    between atoms: _464  and  _465
REMARK  183  A    between atoms: _468  and  _470
REMARK  184  A    between atoms: _470  and  _471
REMARK  185  A    between atoms: _470  and  _473
REMARK  186  A    between atoms: _476  and  _478
REMARK  187  A    between atoms: _478  and  _479
REMARK  188  A    between atoms: _481  and  _483
REMARK  189  A    between atoms: _483  and  _484
REMARK  190  A    between atoms: _483  and  _486
REMARK  191  A    between atoms: _486  and  _487
REMARK  192  A    between atoms: _490  and  _492
REMARK  193  A    between atoms: _492  and  _493
REMARK  194  A    between atoms: _495  and  _497
REMARK  195  A    between atoms: _497  and  _498
REMARK  196  A    between atoms: _497  and  _500
REMARK  197  A    between atoms: _500  and  _501
REMARK  198  A    between atoms: _504  and  _506
REMARK  199  A    between atoms: _506  and  _507
REMARK  200  A    between atoms: _506  and  _509
REMARK  201  A    between atoms: _509  and  _510
REMARK  202  A    between atoms: _515  and  _516
REMARK  203  A    between atoms: _518  and  _520
REMARK  204  A    between atoms: _520  and  _521
REMARK  205  A    between atoms: _520  and  _523
REMARK  206  A    between atoms: _523  and  _524
REMARK  207  A    between atoms: _529  and  _531
REMARK  208  A    between atoms: _531  and  _532
REMARK  209  A    between atoms: _531  and  _534
REMARK  210  A    between atoms: _537  and  _539
REMARK  211  A    between atoms: _539  and  _540
REMARK  212  A    between atoms: _543  and  _545
REMARK  213  A    between atoms: _545  and  _546
REMARK  214  A    between atoms: _545  and  _548
REMARK  215  A    between atoms: _548  and  _549
REMARK  216  A    between atoms: _552  and  _554
REMARK  217  A    between atoms: _554  and  _555
REMARK  218  A    between atoms: _554  and  _557
REMARK  219  A    between atoms: _557  and  _558
REMARK  220  A    between atoms: _558  and  _559
REMARK  221  A    between atoms: _559  and  _560
REMARK  222  A    between atoms: _569  and  _571
REMARK  223  A    between atoms: _571  and  _572
REMARK  224  A    between atoms: _571  and  _574
REMARK  225  A    between atoms: _574  and  _575
REMARK  226  A    between atoms: _578  and  _580
REMARK  227  A    between atoms: _580  and  _581
REMARK  228  A    between atoms: _584  and  _586
REMARK  229  A    between atoms: _586  and  _587
REMARK  230  A    between atoms: _590  and  _592
REMARK  231  A    between atoms: _592  and  _593
REMARK  232  A    between atoms: _592  and  _595
REMARK  233  A    between atoms: _595  and  _596
REMARK  234  A    between atoms: _596  and  _597
REMARK                            x       y       z     vdW  Elec       q    Type
REMARK                         _______ _______ _______ _____ _____    ______ ____
ROOT
ATOM      1  CA  TYR A   2      15.672  -3.203  33.946  0.00  0.00    +0.153 C 
ENDROOT
BRANCH   1   4
ATOM      2  C   VAL A   1      15.555  -4.881  35.763  0.00  0.00    +0.238 C 
ATOM      3  O   VAL A   1      14.300  -4.839  35.817  0.00  0.00    -0.274 OA
ATOM      4  N   TYR A   2      16.279  -4.215  34.846  0.00  0.00    -0.297 N 
ATOM      5  H   TYR A   2      17.296  -4.415  34.765  0.00  0.00    +0.150 HD
BRANCH   2   6
ATOM      6  CA  VAL A   1      16.347  -5.742  36.777  0.00  0.00    +0.145 C 
BRANCH   6   7
ATOM      7  CB  VAL A   1      16.792  -4.844  37.982  0.00  0.00    +0.025 C 
ATOM      8  CG2 VAL A   1      17.545  -5.670  39.039  0.00  0.00    +0.002 C 
ATOM      9  CG1 VAL A   1      15.586  -4.138  38.618  0.00  0.00    +0.002 C 
ENDBRANCH   6   7
BRANCH   6  10
ATOM     10  N   VAL A   1      17.491  -6.465  36.160  0.00  0.00    -0.238 NA
ATOM     11  H   VAL A   1      18.446  -6.061  36.244  0.00  0.00    +0.142 HD
ENDBRANCH   6  10
ENDBRANCH   2   6
ENDBRANCH   1   4
BRANCH   1  12
ATOM     12  C   TYR A   2      15.847  -3.397  32.409  0.00  0.00    +0.241 C 
ATOM     13  N   GLY A   3      16.552  -4.446  31.969  0.00  0.00    -0.296 N 
ATOM     14  H   GLY A   3      16.972  -5.092  32.667  0.00  0.00    +0.150 HD
ATOM     15  O   TYR A   2      15.323  -2.592  31.631  0.00  0.00    -0.273 OA
BRANCH  13  16
ATOM     16  CA  GLY A   3      16.759  -4.726  30.524  0.00  0.00    +0.163 C 
BRANCH  16  17
ATOM     17  C   GLY A   3      18.095  -4.185  30.031  0.00  0.00    +0.229 C 
ATOM     18  O   GLY A   3      18.725  -3.406  30.743  0.00  0.00    -0.286 OA
ENDBRANCH  16  17
ENDBRANCH  13  16
ENDBRANCH   1  12
BRANCH   1  19
ATOM     19  CB  TYR A   2      16.162  -1.799  34.351  0.00  0.00    +0.055 C 
BRANCH  19  20
ATOM     20  CG  TYR A   2      15.970  -1.429  35.834  0.00  0.00    -0.020 A 
ATOM     21  CD2 TYR A   2      17.070  -1.261  36.682  0.00  0.00    -0.001 A 
ATOM     22  CE2 TYR A   2      16.912  -0.899  38.035  0.00  0.00    +0.036 A 
ATOM     23  CZ  TYR A   2      15.639  -0.694  38.549  0.00  0.00    +0.134 A 
ATOM     24  CE1 TYR A   2      14.535  -0.846  37.711  0.00  0.00    +0.036 A 
ATOM     25  CD1 TYR A   2      14.706  -1.200  36.365  0.00  0.00    -0.001 A 
BRANCH  23  26
ATOM     26  OH  TYR A   2      15.467  -0.336  39.881  0.00  0.00    -0.506 OA
ATOM     27  HH  TYR A   2      15.846  -1.042  40.463  0.00  0.00    +0.292 HD
ENDBRANCH  23  26
ENDBRANCH  19  20
ENDBRANCH   1  19
TORSDOF 10
REMARK  Name = ../refined-set-2016/2xb8/2xb8_pocket.pdb
REMARK  234 active torsions:
REMARK  status: ('A' for Active; 'I' for Inactive)
REMARK    1  A    between atoms: _1  and  _3
REMARK    2  A    between atoms: _3  and  _4
REMARK    3  A    between atoms: _3  and  _6
REMARK    4  A    between atoms: _6  and  _7
REMARK    5  A    between atoms: _12  and  _14
REMARK    6  A    between atoms: _14  and  _15
REMARK    7  A    between atoms: _18  and  _19
REMARK    8  A    between atoms: _24  and  _26
REMARK    9  A    between atoms: _26  and  _27
REMARK   10  A    between atoms: _26  and  _29
REMARK   11  A    between atoms: _29  and  _30
REMARK   12  A    between atoms: _35  and  _37
REMARK   13  A    between atoms: _37  and  _38
REMARK   14  A    between atoms: _37  and  _40
REMARK   15  A    between atoms: _40  and  _41
REMARK   16  A    between atoms: _44  and  _46
REMARK   17  A    between atoms: _46  and  _47
REMARK   18  A    between atoms: _49  and  _51
REMARK   19  A    between atoms: _51  and  _52
REMARK   20  A    between atoms: _51  and  _54
REMARK   21  A    between atoms: _54  and  _55
REMARK   22  A    between atoms: _55  and  _56
REMARK   23  A    between atoms: _56  and  _57
REMARK   24  A    between atoms: _66  and  _68
REMARK   25  A    between atoms: _68  and  _69
REMARK   26  A    between atoms: _68  and  _71
REMARK   27  A    between atoms: _71  and  _72
REMARK   28  A    between atoms: _75  and  _77
REMARK   29  A    between atoms: _77  and  _78
REMARK   30  A    between atoms: _80  and  _82
REMARK   31  A    between atoms: _82  and  _83
REMARK   32  A    between atoms: _82  and  _85
REMARK   33  A    between atoms: _85  and  _86
REMARK   34  A    between atoms: _86  and  _87
REMARK   35  A    between atoms: _87  and  _88
REMARK   36  A    between atoms: _97  and  _99
REMARK   37  A    between atoms: _99  and  _100
REMARK   38  A    between atoms: _99  and  _102
REMARK   39  A    between atoms: _102  and  _103
REMARK   40  A    between atoms: _103  and  _104
REMARK   41  A    between atoms: _104  and  _105
REMARK   42  A    between atoms: _114  and  _116
REMARK   43  A    between atoms: _116  and  _117
REMARK   44  A    between atoms: _116  and  _119
REMARK   45  A    between atoms: _119  and  _120
REMARK   46  A    between atoms: _120  and  _121
REMARK   47  A    between atoms: _125  and  _126
REMARK   48  A    between atoms: _131  and  _133
REMARK   49  A    between atoms: _133  and  _134
REMARK   50  A    between atoms: _133  and  _136
REMARK   51  A    between atoms: _139  and  _141
REMARK   52  A    between atoms: _141  and  _142
REMARK   53  A    between atoms: _141  and  _144
REMARK   54  A    between atoms: _144  and  _145
REMARK   55  A    between atoms: _150  and  _151
REMARK   56  A    between atoms: _153  and  _155
REMARK   57  A    between atoms: _155  and  _156
REMARK   58  A    between atoms: _158  and  _160
REMARK   59  A    between atoms: _160  and  _161
REMARK   60  A    between atoms: _160  and  _163
REMARK   61  A    between atoms: _163  and  _164
REMARK   62  A    between atoms: _167  and  _169
REMARK   63  A    between atoms: _169  and  _170
REMARK   64  A    between atoms: _169  and  _172
REMARK   65  A    between atoms: _172  and  _173
REMARK   66  A    between atoms: _176  and  _178
REMARK   67  A    between atoms: _178  and  _179
REMARK   68  A    between atoms: _178  and  _181
REMARK   69  A    between atoms: _181  and  _182
REMARK   70  A    between atoms: _187  and  _189
REMARK   71  A    between atoms: _189  and  _190
REMARK   72  A    between atoms: _189  and  _192
REMARK   73  A    between atoms: _192  and  _193
REMARK   74  A    between atoms: _196  and  _198
REMARK   75  A    between atoms: _198  and  _199
REMARK   76  A    between atoms: _198  and  _201
REMARK   77  A    between atoms: _201  and  _202
REMARK   78  A    between atoms: _202  and  _203
REMARK   79  A    between atoms: _208  and  _210
REMARK   80  A    between atoms: _210  and  _211
REMARK   81  A    between atoms: _210  and  _213
REMARK   82  A    between atoms: _213  and  _214
REMARK   83  A    between atoms: _217  and  _219
REMARK   84  A    between atoms: _219  and  _220
REMARK   85  A    between atoms: _219  and  _222
REMARK   86  A    between atoms: _222  and  _223
REMARK   87  A    between atoms: _228  and  _230
REMARK   88  A    between atoms: _230  and  _231
REMARK   89  A    between atoms: _234  and  _236
REMARK   90  A    between atoms: _236  and  _237
REMARK   91  A    between atoms: _239  and  _241
REMARK   92  A    between atoms: _241  and  _242
REMARK   93  A    between atoms: _244  and  _246
REMARK   94  A    between atoms: _246  and  _247
REMARK   95  A    between atoms: _246  and  _249
REMARK   96  A    between atoms: _249  and  _250
REMARK   97  A    between atoms: _253  and  _255
REMARK   98  A    between atoms: _255  and  _256
REMARK   99  A    between atoms: _255  and  _258
REMARK  100  A    between atoms: _258  and  _259
REMARK  101  A    between atoms: _262  and  _264
REMARK  102  A    between atoms: _264  and  _265
REMARK  103  A    between atoms: _264  and  _267
REMARK  104  A    between atoms: _267  and  _268
REMARK  105  A    between atoms: _273  and  _275
REMARK  106  A    between atoms: _275  and  _276
REMARK  107  A    between atoms: _275  and  _278
REMARK  108  A    between atoms: _278  and  _279
REMARK  109  A    between atoms: _282  and  _284
REMARK  110  A    between atoms: _284  and  _285
REMARK  111  A    between atoms: _284  and  _287
REMARK  112  A    between atoms: _287  and  _288
REMARK  113  A    between atoms: _288  and  _289
REMARK  114  A    between atoms: _292  and  _294
REMARK  115  A    between atoms: _294  and  _295
REMARK  116  A    between atoms: _294  and  _297
REMARK  117  A    between atoms: _300  and  _302
REMARK  118  A    between atoms: _302  and  _303
REMARK  119  A    between atoms: _302  and  _305
REMARK  120  A    between atoms: _305  and  _306
REMARK  121  A    between atoms: _311  and  _313
REMARK  122  A    between atoms: _313  and  _314
REMARK  123  A    between atoms: _313  and  _316
REMARK  124  A    between atoms: _316  and  _317
REMARK  125  A    between atoms: _320  and  _322
REMARK  126  A    between atoms: _322  and  _323
REMARK  127  A    between atoms: _322  and  _325
REMARK  128  A    between atoms: _325  and  _326
REMARK  129  A    between atoms: _328  and  _330
REMARK  130  A    between atoms: _330  and  _331
REMARK  131  A    between atoms: _330  and  _333
REMARK  132  A    between atoms: _333  and  _334
REMARK  133  A    between atoms: _339  and  _341
REMARK  134  A    between atoms: _341  and  _342
REMARK  135  A    between atoms: _341  and  _344
REMARK  136  A    between atoms: _347  and  _349
REMARK  137  A    between atoms: _349  and  _350
REMARK  138  A    between atoms: _349  and  _352
REMARK  139  A    between atoms: _352  and  _353
REMARK  140  A    between atoms: _358  and  _360
REMARK  141  A    between atoms: _360  and  _361
REMARK  142  A    between atoms: _360  and  _363
REMARK  143  A    between atoms: _363  and  _364
REMARK  144  A    between atoms: _364  and  _365
REMARK  145  A    between atoms: _365  and  _366
REMARK  146  A    between atoms: _375  and  _377
REMARK  147  A    between atoms: _377  and  _378
REMARK  148  A    between atoms: _377  and  _380
REMARK  149  A    between atoms: _380  and  _381
REMARK  150  A    between atoms: _381  and  _382
REMARK  151  A    between atoms: _385  and  _387
REMARK  152  A    between atoms: _387  and  _388
REMARK  153  A    between atoms: _387  and  _390
REMARK  154  A    between atoms: _390  and  _391
REMARK  155  A    between atoms: _397  and  _399
REMARK  156  A    between atoms: _399  and  _400
REMARK  157  A    between atoms: _399  and  _402
REMARK  158  A    between atoms: _402  and  _403
REMARK  159  A    between atoms: _403  and  _404
REMARK  160  A    between atoms: _404  and  _405
REMARK  161  A    between atoms: _414  and  _416
REMARK  162  A    between atoms: _416  and  _417
REMARK  163  A    between atoms: _416  and  _419
REMARK  164  A    between atoms: _419  and  _420
REMARK  165  A    between atoms: _420  and  _421
REMARK  166  A    between atoms: _421  and  _422
REMARK  167  A    between atoms: _431  and  _433
REMARK  168  A    between atoms: _433  and  _434
REMARK  169  A    between atoms: _433  and  _436
REMARK  170  A    between atoms: _436  and  _437
REMARK  171  A    between atoms: _442  and  _444
REMARK  172  A    between atoms: _444  and  _445
REMARK  173  A    between atoms: _444  and  _447
REMARK  174  A    between atoms: _447  and  _448
REMARK  175  A    between atoms: _450  and  _452
REMARK  176  A    between atoms: _452  and  _453
REMARK  177  A    between atoms: _452  and  _455
REMARK  178  A    between atoms: _455  and  _456
REMARK  179  A    between atoms: _459  and  _461
REMARK  180  A    between atoms: _461  and  _462
REMARK  181  A    between atoms: _461  and  _464
REMARK  182  A    between atoms: _464  and  _465
REMARK  183  A    between atoms: _468  and  _470
REMARK  184  A    between atoms: _470  and  _471
REMARK  185  A    between atoms: _470  and  _473
REMARK  186  A    between atoms: _476  and  _478
REMARK  187  A    between atoms: _478  and  _479
REMARK  188  A    between atoms: _481  and  _483
REMARK  189  A    between atoms: _483  and  _484
REMARK  190  A    between atoms: _483  and  _486
REMARK  191  A    between atoms: _486  and  _487
REMARK  192  A    between atoms: _490  and  _492
REMARK  193  A    between atoms: _492  and  _493
REMARK  194  A    between atoms: _495  and  _497
REMARK  195  A    between atoms: _497  and  _498
REMARK  196  A    between atoms: _497  and  _500
REMARK  197  A    between atoms: _500  and  _501
REMARK  198  A    between atoms: _504  and  _506
REMARK  199  A    between atoms: _506  and  _507
REMARK  200  A    between atoms: _506  and  _509
REMARK  201  A    between atoms: _509  and  _510
REMARK  202  A    between atoms: _515  and  _516
REMARK  203  A    between atoms: _518  and  _520
REMARK  204  A    between atoms: _520  and  _521
REMARK  205  A    between atoms: _520  and  _523
REMARK  206  A    between atoms: _523  and  _524
REMARK  207  A    between atoms: _529  and  _531
REMARK  208  A    between atoms: _531  and  _532
REMARK  209  A    between atoms: _531  and  _534
REMARK  210  A    between atoms: _537  and  _539
REMARK  211  A    between atoms: _539  and  _540
REMARK  212  A    between atoms: _543  and  _545
REMARK  213  A    between atoms: _545  and  _546
REMARK  214  A    between atoms: _545  and  _548
REMARK  215  A    between atoms: _548  and  _549
REMARK  216  A    between atoms: _552  and  _554
REMARK  217  A    between atoms: _554  and  _555
REMARK  218  A    between atoms: _554  and  _557
REMARK  219  A    between atoms: _557  and  _558
REMARK  220  A    between atoms: _558  and  _559
REMARK  221  A    between atoms: _559  and  _560
REMARK  222  A    between atoms: _569  and  _571
REMARK  223  A    between atoms: _571  and  _572
REMARK  224  A    between atoms: _571  and  _574
REMARK  225  A    between atoms: _574  and  _575
REMARK  226  A    between atoms: _578  and  _580
REMARK  227  A    between atoms: _580  and  _581
REMARK  228  A    between atoms: _584  and  _586
REMARK  229  A    between atoms: _586  and  _587
REMARK  230  A    between atoms: _590  and  _592
REMARK  231  A    between atoms: _592  and  _593
REMARK  232  A    between atoms: _592  and  _595
REMARK  233  A    between atoms: _595  and  _596
REMARK  234  A    between atoms: _596  and  _597
REMARK                            x       y       z     vdW  Elec       q    Type
REMARK                         _______ _______ _______ _____ _____    ______ ____
ROOT
ATOM      1  CA  THR A   2      20.292   2.114  27.184  0.00  0.00    +0.176 C 
ENDROOT
BRANCH   1   4
ATOM      2  C   THR A   1      18.824   0.147  27.208  0.00  0.00    +0.241 C 
ATOM      3  O   THR A   1      18.432   0.372  28.366  0.00  0.00    -0.274 OA
ATOM      4  N   THR A   2      19.708   0.922  26.573  0.00  0.00    -0.295 N 
ATOM      5  H   THR A   2      19.992   0.667  25.606  0.00  0.00    +0.150 HD
BRANCH   2   6
ATOM      6  CA  THR A   1      18.305  -1.088  26.455  0.00  0.00    +0.172 C 
BRANCH   6   7
ATOM      7  N   THR A   1      18.518  -2.310  27.234  0.00  0.00    -0.236 NA
ATOM      8  H   THR A   1      17.710  -2.731  27.736  0.00  0.00    +0.142 HD
ENDBRANCH   6   7
BRANCH   6   9
ATOM      9  CB  THR A   1      16.826  -0.902  26.191  0.00  0.00    +0.135 C 
ATOM     10  CG2 THR A   1      16.565   0.409  25.448  0.00  0.00    +0.034 C 
BRANCH   9  11
ATOM     11  OG1 THR A   1      16.334  -2.022  25.431  0.00  0.00    -0.383 OA
ATOM     12  HG1 THR A   1      15.367  -1.902  25.257  0.00  0.00    +0.210 HD
ENDBRANCH   9  11
ENDBRANCH   6   9
ENDBRANCH   2   6
ENDBRANCH   1   4
BRANCH   1  13
ATOM     13  C   THR A   2      19.339   3.320  27.097  0.00  0.00    +0.243 C 
ATOM     14  N   HIS A   3      19.693   4.406  27.796  0.00  0.00    -0.298 N 
ATOM     15  H   HIS A   3      20.575   4.402  28.346  0.00  0.00    +0.150 HD
ATOM     16  O   THR A   2      18.317   3.270  26.377  0.00  0.00    -0.273 OA
BRANCH  14  17
ATOM     17  CA  HIS A   3      18.852   5.590  27.790  0.00  0.00    +0.143 C 
BRANCH  17  18
ATOM     18  C   HIS A   3      18.770   6.255  26.427  0.00  0.00    +0.227 C 
ATOM     19  O   HIS A   3      17.683   6.663  26.061  0.00  0.00    -0.286 OA
ENDBRANCH  17  18
BRANCH  17  20
ATOM     20  CB  HIS A   3      19.213   6.644  28.861  0.00  0.00    +0.075 C 
BRANCH  20  21
ATOM     21  CG  HIS A   3      18.111   7.633  29.085  0.00  0.00    +0.082 A 
ATOM     22  CD2 HIS A   3      17.022   7.591  29.892  0.00  0.00    +0.115 A 
ATOM     23  NE2 HIS A   3      16.298   8.742  29.656  0.00  0.00    -0.221 NA
ATOM     24  CE1 HIS A   3      16.928   9.467  28.748  0.00  0.00    +0.199 A 
ATOM     25  ND1 HIS A   3      18.021   8.818  28.382  0.00  0.00    -0.227 NA
ENDBRANCH  20  21
ENDBRANCH  17  20
ENDBRANCH  14  17
ENDBRANCH   1  13
BRANCH   1  26
ATOM     26  CB  THR A   2      21.610   2.547  26.504  0.00  0.00    +0.137 C 
ATOM     27  CG2 THR A   2      22.601   1.416  26.426  0.00  0.00    +0.034 C 
BRANCH  26  28
ATOM     28  OG1 THR A   2      21.326   3.032  25.184  0.00  0.00    -0.382 OA
ATOM     29  HG1 THR A   2      22.170   3.310  24.747  0.00  0.00    +0.210 HD
ENDBRANCH  26  28
ENDBRANCH   1  26
TORSDOF 12
REMARK  Name = ../refined-set-2016/2xb8/2xb8_pocket.pdb
REMARK  234 active torsions:
REMARK  status: ('A' for Active; 'I' for Inactive)
REMARK    1  A    between atoms: _1  and  _3
REMARK    2  A    between atoms: _3  and  _4
REMARK    3  A    between atoms: _3  and  _6
REMARK    4  A    between atoms: _6  and  _7
REMARK    5  A    between atoms: _12  and  _14
REMARK    6  A    between atoms: _14  and  _15
REMARK    7  A    between atoms: _18  and  _19
REMARK    8  A    between atoms: _24  and  _26
REMARK    9  A    between atoms: _26  and  _27
REMARK   10  A    between atoms: _26  and  _29
REMARK   11  A    between atoms: _29  and  _30
REMARK   12  A    between atoms: _35  and  _37
REMARK   13  A    between atoms: _37  and  _38
REMARK   14  A    between atoms: _37  and  _40
REMARK   15  A    between atoms: _40  and  _41
REMARK   16  A    between atoms: _44  and  _46
REMARK   17  A    between atoms: _46  and  _47
REMARK   18  A    between atoms: _49  and  _51
REMARK   19  A    between atoms: _51  and  _52
REMARK   20  A    between atoms: _51  and  _54
REMARK   21  A    between atoms: _54  and  _55
REMARK   22  A    between atoms: _55  and  _56
REMARK   23  A    between atoms: _56  and  _57
REMARK   24  A    between atoms: _66  and  _68
REMARK   25  A    between atoms: _68  and  _69
REMARK   26  A    between atoms: _68  and  _71
REMARK   27  A    between atoms: _71  and  _72
REMARK   28  A    between atoms: _75  and  _77
REMARK   29  A    between atoms: _77  and  _78
REMARK   30  A    between atoms: _80  and  _82
REMARK   31  A    between atoms: _82  and  _83
REMARK   32  A    between atoms: _82  and  _85
REMARK   33  A    between atoms: _85  and  _86
REMARK   34  A    between atoms: _86  and  _87
REMARK   35  A    between atoms: _87  and  _88
REMARK   36  A    between atoms: _97  and  _99
REMARK   37  A    between atoms: _99  and  _100
REMARK   38  A    between atoms: _99  and  _102
REMARK   39  A    between atoms: _102  and  _103
REMARK   40  A    between atoms: _103  and  _104
REMARK   41  A    between atoms: _104  and  _105
REMARK   42  A    between atoms: _114  and  _116
REMARK   43  A    between atoms: _116  and  _117
REMARK   44  A    between atoms: _116  and  _119
REMARK   45  A    between atoms: _119  and  _120
REMARK   46  A    between atoms: _120  and  _121
REMARK   47  A    between atoms: _125  and  _126
REMARK   48  A    between atoms: _131  and  _133
REMARK   49  A    between atoms: _133  and  _134
REMARK   50  A    between atoms: _133  and  _136
REMARK   51  A    between atoms: _139  and  _141
REMARK   52  A    between atoms: _141  and  _142
REMARK   53  A    between atoms: _141  and  _144
REMARK   54  A    between atoms: _144  and  _145
REMARK   55  A    between atoms: _150  and  _151
REMARK   56  A    between atoms: _153  and  _155
REMARK   57  A    between atoms: _155  and  _156
REMARK   58  A    between atoms: _158  and  _160
REMARK   59  A    between atoms: _160  and  _161
REMARK   60  A    between atoms: _160  and  _163
REMARK   61  A    between atoms: _163  and  _164
REMARK   62  A    between atoms: _167  and  _169
REMARK   63  A    between atoms: _169  and  _170
REMARK   64  A    between atoms: _169  and  _172
REMARK   65  A    between atoms: _172  and  _173
REMARK   66  A    between atoms: _176  and  _178
REMARK   67  A    between atoms: _178  and  _179
REMARK   68  A    between atoms: _178  and  _181
REMARK   69  A    between atoms: _181  and  _182
REMARK   70  A    between atoms: _187  and  _189
REMARK   71  A    between atoms: _189  and  _190
REMARK   72  A    between atoms: _189  and  _192
REMARK   73  A    between atoms: _192  and  _193
REMARK   74  A    between atoms: _196  and  _198
REMARK   75  A    between atoms: _198  and  _199
REMARK   76  A    between atoms: _198  and  _201
REMARK   77  A    between atoms: _201  and  _202
REMARK   78  A    between atoms: _202  and  _203
REMARK   79  A    between atoms: _208  and  _210
REMARK   80  A    between atoms: _210  and  _211
REMARK   81  A    between atoms: _210  and  _213
REMARK   82  A    between atoms: _213  and  _214
REMARK   83  A    between atoms: _217  and  _219
REMARK   84  A    between atoms: _219  and  _220
REMARK   85  A    between atoms: _219  and  _222
REMARK   86  A    between atoms: _222  and  _223
REMARK   87  A    between atoms: _228  and  _230
REMARK   88  A    between atoms: _230  and  _231
REMARK   89  A    between atoms: _234  and  _236
REMARK   90  A    between atoms: _236  and  _237
REMARK   91  A    between atoms: _239  and  _241
REMARK   92  A    between atoms: _241  and  _242
REMARK   93  A    between atoms: _244  and  _246
REMARK   94  A    between atoms: _246  and  _247
REMARK   95  A    between atoms: _246  and  _249
REMARK   96  A    between atoms: _249  and  _250
REMARK   97  A    between atoms: _253  and  _255
REMARK   98  A    between atoms: _255  and  _256
REMARK   99  A    between atoms: _255  and  _258
REMARK  100  A    between atoms: _258  and  _259
REMARK  101  A    between atoms: _262  and  _264
REMARK  102  A    between atoms: _264  and  _265
REMARK  103  A    between atoms: _264  and  _267
REMARK  104  A    between atoms: _267  and  _268
REMARK  105  A    between atoms: _273  and  _275
REMARK  106  A    between atoms: _275  and  _276
REMARK  107  A    between atoms: _275  and  _278
REMARK  108  A    between atoms: _278  and  _279
REMARK  109  A    between atoms: _282  and  _284
REMARK  110  A    between atoms: _284  and  _285
REMARK  111  A    between atoms: _284  and  _287
REMARK  112  A    between atoms: _287  and  _288
REMARK  113  A    between atoms: _288  and  _289
REMARK  114  A    between atoms: _292  and  _294
REMARK  115  A    between atoms: _294  and  _295
REMARK  116  A    between atoms: _294  and  _297
REMARK  117  A    between atoms: _300  and  _302
REMARK  118  A    between atoms: _302  and  _303
REMARK  119  A    between atoms: _302  and  _305
REMARK  120  A    between atoms: _305  and  _306
REMARK  121  A    between atoms: _311  and  _313
REMARK  122  A    between atoms: _313  and  _314
REMARK  123  A    between atoms: _313  and  _316
REMARK  124  A    between atoms: _316  and  _317
REMARK  125  A    between atoms: _320  and  _322
REMARK  126  A    between atoms: _322  and  _323
REMARK  127  A    between atoms: _322  and  _325
REMARK  128  A    between atoms: _325  and  _326
REMARK  129  A    between atoms: _328  and  _330
REMARK  130  A    between atoms: _330  and  _331
REMARK  131  A    between atoms: _330  and  _333
REMARK  132  A    between atoms: _333  and  _334
REMARK  133  A    between atoms: _339  and  _341
REMARK  134  A    between atoms: _341  and  _342
REMARK  135  A    between atoms: _341  and  _344
REMARK  136  A    between atoms: _347  and  _349
REMARK  137  A    between atoms: _349  and  _350
REMARK  138  A    between atoms: _349  and  _352
REMARK  139  A    between atoms: _352  and  _353
REMARK  140  A    between atoms: _358  and  _360
REMARK  141  A    between atoms: _360  and  _361
REMARK  142  A    between atoms: _360  and  _363
REMARK  143  A    between atoms: _363  and  _364
REMARK  144  A    between atoms: _364  and  _365
REMARK  145  A    between atoms: _365  and  _366
REMARK  146  A    between atoms: _375  and  _377
REMARK  147  A    between atoms: _377  and  _378
REMARK  148  A    between atoms: _377  and  _380
REMARK  149  A    between atoms: _380  and  _381
REMARK  150  A    between atoms: _381  and  _382
REMARK  151  A    between atoms: _385  and  _387
REMARK  152  A    between atoms: _387  and  _388
REMARK  153  A    between atoms: _387  and  _390
REMARK  154  A    between atoms: _390  and  _391
REMARK  155  A    between atoms: _397  and  _399
REMARK  156  A    between atoms: _399  and  _400
REMARK  157  A    between atoms: _399  and  _402
REMARK  158  A    between atoms: _402  and  _403
REMARK  159  A    between atoms: _403  and  _404
REMARK  160  A    between atoms: _404  and  _405
REMARK  161  A    between atoms: _414  and  _416
REMARK  162  A    between atoms: _416  and  _417
REMARK  163  A    between atoms: _416  and  _419
REMARK  164  A    between atoms: _419  and  _420
REMARK  165  A    between atoms: _420  and  _421
REMARK  166  A    between atoms: _421  and  _422
REMARK  167  A    between atoms: _431  and  _433
REMARK  168  A    between atoms: _433  and  _434
REMARK  169  A    between atoms: _433  and  _436
REMARK  170  A    between atoms: _436  and  _437
REMARK  171  A    between atoms: _442  and  _444
REMARK  172  A    between atoms: _444  and  _445
REMARK  173  A    between atoms: _444  and  _447
REMARK  174  A    between atoms: _447  and  _448
REMARK  175  A    between atoms: _450  and  _452
REMARK  176  A    between atoms: _452  and  _453
REMARK  177  A    between atoms: _452  and  _455
REMARK  178  A    between atoms: _455  and  _456
REMARK  179  A    between atoms: _459  and  _461
REMARK  180  A    between atoms: _461  and  _462
REMARK  181  A    between atoms: _461  and  _464
REMARK  182  A    between atoms: _464  and  _465
REMARK  183  A    between atoms: _468  and  _470
REMARK  184  A    between atoms: _470  and  _471
REMARK  185  A    between atoms: _470  and  _473
REMARK  186  A    between atoms: _476  and  _478
REMARK  187  A    between atoms: _478  and  _479
REMARK  188  A    between atoms: _481  and  _483
REMARK  189  A    between atoms: _483  and  _484
REMARK  190  A    between atoms: _483  and  _486
REMARK  191  A    between atoms: _486  and  _487
REMARK  192  A    between atoms: _490  and  _492
REMARK  193  A    between atoms: _492  and  _493
REMARK  194  A    between atoms: _495  and  _497
REMARK  195  A    between atoms: _497  and  _498
REMARK  196  A    between atoms: _497  and  _500
REMARK  197  A    between atoms: _500  and  _501
REMARK  198  A    between atoms: _504  and  _506
REMARK  199  A    between atoms: _506  and  _507
REMARK  200  A    between atoms: _506  and  _509
REMARK  201  A    between atoms: _509  and  _510
REMARK  202  A    between atoms: _515  and  _516
REMARK  203  A    between atoms: _518  and  _520
REMARK  204  A    between atoms: _520  and  _521
REMARK  205  A    between atoms: _520  and  _523
REMARK  206  A    between atoms: _523  and  _524
REMARK  207  A    between atoms: _529  and  _531
REMARK  208  A    between atoms: _531  and  _532
REMARK  209  A    between atoms: _531  and  _534
REMARK  210  A    between atoms: _537  and  _539
REMARK  211  A    between atoms: _539  and  _540
REMARK  212  A    between atoms: _543  and  _545
REMARK  213  A    between atoms: _545  and  _546
REMARK  214  A    between atoms: _545  and  _548
REMARK  215  A    between atoms: _548  and  _549
REMARK  216  A    between atoms: _552  and  _554
REMARK  217  A    between atoms: _554  and  _555
REMARK  218  A    between atoms: _554  and  _557
REMARK  219  A    between atoms: _557  and  _558
REMARK  220  A    between atoms: _558  and  _559
REMARK  221  A    between atoms: _559  and  _560
REMARK  222  A    between atoms: _569  and  _571
REMARK  223  A    between atoms: _571  and  _572
REMARK  224  A    between atoms: _571  and  _574
REMARK  225  A    between atoms: _574  and  _575
REMARK  226  A    between atoms: _578  and  _580
REMARK  227  A    between atoms: _580  and  _581
REMARK  228  A    between atoms: _584  and  _586
REMARK  229  A    between atoms: _586  and  _587
REMARK  230  A    between atoms: _590  and  _592
REMARK  231  A    between atoms: _592  and  _593
REMARK  232  A    between atoms: _592  and  _595
REMARK  233  A    between atoms: _595  and  _596
REMARK  234  A    between atoms: _596  and  _597
REMARK                            x       y       z     vdW  Elec       q    Type
REMARK                         _______ _______ _______ _____ _____    ______ ____
ROOT
ATOM      1  CA  LEU A   1      15.186   4.467  24.811  0.00  0.00    +0.133 C 
ENDROOT
BRANCH   1   2
ATOM      2  N   LEU A   1      16.553   4.230  24.370  0.00  0.00    -0.239 NA
ATOM      3  H   LEU A   1      17.321   4.275  25.070  0.00  0.00    +0.142 HD
ENDBRANCH   1   2
BRANCH   1   4
ATOM      4  C   LEU A   1      14.619   5.721  24.150  0.00  0.00    +0.224 C 
ATOM      5  O   LEU A   1      13.491   5.703  23.635  0.00  0.00    -0.287 OA
ENDBRANCH   1   4
BRANCH   1   6
ATOM      6  CB  LEU A   1      15.132   4.585  26.340  0.00  0.00    +0.025 C 
BRANCH   6   7
ATOM      7  CG  LEU A   1      13.807   5.021  26.985  0.00  0.00    +0.002 C 
ATOM      8  CD2 LEU A   1      13.857   4.992  28.529  0.00  0.00    +0.000 C 
ATOM      9  CD1 LEU A   1      12.704   4.123  26.486  0.00  0.00    +0.000 C 
ENDBRANCH   6   7
ENDBRANCH   1   6
TORSDOF 4
REMARK  Name = ../refined-set-2016/2xb8/2xb8_pocket.pdb
REMARK  234 active torsions:
REMARK  status: ('A' for Active; 'I' for Inactive)
REMARK    1  A    between atoms: _1  and  _3
REMARK    2  A    between atoms: _3  and  _4
REMARK    3  A    between atoms: _3  and  _6
REMARK    4  A    between atoms: _6  and  _7
REMARK    5  A    between atoms: _12  and  _14
REMARK    6  A    between atoms: _14  and  _15
REMARK    7  A    between atoms: _18  and  _19
REMARK    8  A    between atoms: _24  and  _26
REMARK    9  A    between atoms: _26  and  _27
REMARK   10  A    between atoms: _26  and  _29
REMARK   11  A    between atoms: _29  and  _30
REMARK   12  A    between atoms: _35  and  _37
REMARK   13  A    between atoms: _37  and  _38
REMARK   14  A    between atoms: _37  and  _40
REMARK   15  A    between atoms: _40  and  _41
REMARK   16  A    between atoms: _44  and  _46
REMARK   17  A    between atoms: _46  and  _47
REMARK   18  A    between atoms: _49  and  _51
REMARK   19  A    between atoms: _51  and  _52
REMARK   20  A    between atoms: _51  and  _54
REMARK   21  A    between atoms: _54  and  _55
REMARK   22  A    between atoms: _55  and  _56
REMARK   23  A    between atoms: _56  and  _57
REMARK   24  A    between atoms: _66  and  _68
REMARK   25  A    between atoms: _68  and  _69
REMARK   26  A    between atoms: _68  and  _71
REMARK   27  A    between atoms: _71  and  _72
REMARK   28  A    between atoms: _75  and  _77
REMARK   29  A    between atoms: _77  and  _78
REMARK   30  A    between atoms: _80  and  _82
REMARK   31  A    between atoms: _82  and  _83
REMARK   32  A    between atoms: _82  and  _85
REMARK   33  A    between atoms: _85  and  _86
REMARK   34  A    between atoms: _86  and  _87
REMARK   35  A    between atoms: _87  and  _88
REMARK   36  A    between atoms: _97  and  _99
REMARK   37  A    between atoms: _99  and  _100
REMARK   38  A    between atoms: _99  and  _102
REMARK   39  A    between atoms: _102  and  _103
REMARK   40  A    between atoms: _103  and  _104
REMARK   41  A    between atoms: _104  and  _105
REMARK   42  A    between atoms: _114  and  _116
REMARK   43  A    between atoms: _116  and  _117
REMARK   44  A    between atoms: _116  and  _119
REMARK   45  A    between atoms: _119  and  _120
REMARK   46  A    between atoms: _120  and  _121
REMARK   47  A    between atoms: _125  and  _126
REMARK   48  A    between atoms: _131  and  _133
REMARK   49  A    between atoms: _133  and  _134
REMARK   50  A    between atoms: _133  and  _136
REMARK   51  A    between atoms: _139  and  _141
REMARK   52  A    between atoms: _141  and  _142
REMARK   53  A    between atoms: _141  and  _144
REMARK   54  A    between atoms: _144  and  _145
REMARK   55  A    between atoms: _150  and  _151
REMARK   56  A    between atoms: _153  and  _155
REMARK   57  A    between atoms: _155  and  _156
REMARK   58  A    between atoms: _158  and  _160
REMARK   59  A    between atoms: _160  and  _161
REMARK   60  A    between atoms: _160  and  _163
REMARK   61  A    between atoms: _163  and  _164
REMARK   62  A    between atoms: _167  and  _169
REMARK   63  A    between atoms: _169  and  _170
REMARK   64  A    between atoms: _169  and  _172
REMARK   65  A    between atoms: _172  and  _173
REMARK   66  A    between atoms: _176  and  _178
REMARK   67  A    between atoms: _178  and  _179
REMARK   68  A    between atoms: _178  and  _181
REMARK   69  A    between atoms: _181  and  _182
REMARK   70  A    between atoms: _187  and  _189
REMARK   71  A    between atoms: _189  and  _190
REMARK   72  A    between atoms: _189  and  _192
REMARK   73  A    between atoms: _192  and  _193
REMARK   74  A    between atoms: _196  and  _198
REMARK   75  A    between atoms: _198  and  _199
REMARK   76  A    between atoms: _198  and  _201
REMARK   77  A    between atoms: _201  and  _202
REMARK   78  A    between atoms: _202  and  _203
REMARK   79  A    between atoms: _208  and  _210
REMARK   80  A    between atoms: _210  and  _211
REMARK   81  A    between atoms: _210  and  _213
REMARK   82  A    between atoms: _213  and  _214
REMARK   83  A    between atoms: _217  and  _219
REMARK   84  A    between atoms: _219  and  _220
REMARK   85  A    between atoms: _219  and  _222
REMARK   86  A    between atoms: _222  and  _223
REMARK   87  A    between atoms: _228  and  _230
REMARK   88  A    between atoms: _230  and  _231
REMARK   89  A    between atoms: _234  and  _236
REMARK   90  A    between atoms: _236  and  _237
REMARK   91  A    between atoms: _239  and  _241
REMARK   92  A    between atoms: _241  and  _242
REMARK   93  A    between atoms: _244  and  _246
REMARK   94  A    between atoms: _246  and  _247
REMARK   95  A    between atoms: _246  and  _249
REMARK   96  A    between atoms: _249  and  _250
REMARK   97  A    between atoms: _253  and  _255
REMARK   98  A    between atoms: _255  and  _256
REMARK   99  A    between atoms: _255  and  _258
REMARK  100  A    between atoms: _258  and  _259
REMARK  101  A    between atoms: _262  and  _264
REMARK  102  A    between atoms: _264  and  _265
REMARK  103  A    between atoms: _264  and  _267
REMARK  104  A    between atoms: _267  and  _268
REMARK  105  A    between atoms: _273  and  _275
REMARK  106  A    between atoms: _275  and  _276
REMARK  107  A    between atoms: _275  and  _278
REMARK  108  A    between atoms: _278  and  _279
REMARK  109  A    between atoms: _282  and  _284
REMARK  110  A    between atoms: _284  and  _285
REMARK  111  A    between atoms: _284  and  _287
REMARK  112  A    between atoms: _287  and  _288
REMARK  113  A    between atoms: _288  and  _289
REMARK  114  A    between atoms: _292  and  _294
REMARK  115  A    between atoms: _294  and  _295
REMARK  116  A    between atoms: _294  and  _297
REMARK  117  A    between atoms: _300  and  _302
REMARK  118  A    between atoms: _302  and  _303
REMARK  119  A    between atoms: _302  and  _305
REMARK  120  A    between atoms: _305  and  _306
REMARK  121  A    between atoms: _311  and  _313
REMARK  122  A    between atoms: _313  and  _314
REMARK  123  A    between atoms: _313  and  _316
REMARK  124  A    between atoms: _316  and  _317
REMARK  125  A    between atoms: _320  and  _322
REMARK  126  A    between atoms: _322  and  _323
REMARK  127  A    between atoms: _322  and  _325
REMARK  128  A    between atoms: _325  and  _326
REMARK  129  A    between atoms: _328  and  _330
REMARK  130  A    between atoms: _330  and  _331
REMARK  131  A    between atoms: _330  and  _333
REMARK  132  A    between atoms: _333  and  _334
REMARK  133  A    between atoms: _339  and  _341
REMARK  134  A    between atoms: _341  and  _342
REMARK  135  A    between atoms: _341  and  _344
REMARK  136  A    between atoms: _347  and  _349
REMARK  137  A    between atoms: _349  and  _350
REMARK  138  A    between atoms: _349  and  _352
REMARK  139  A    between atoms: _352  and  _353
REMARK  140  A    between atoms: _358  and  _360
REMARK  141  A    between atoms: _360  and  _361
REMARK  142  A    between atoms: _360  and  _363
REMARK  143  A    between atoms: _363  and  _364
REMARK  144  A    between atoms: _364  and  _365
REMARK  145  A    between atoms: _365  and  _366
REMARK  146  A    between atoms: _375  and  _377
REMARK  147  A    between atoms: _377  and  _378
REMARK  148  A    between atoms: _377  and  _380
REMARK  149  A    between atoms: _380  and  _381
REMARK  150  A    between atoms: _381  and  _382
REMARK  151  A    between atoms: _385  and  _387
REMARK  152  A    between atoms: _387  and  _388
REMARK  153  A    between atoms: _387  and  _390
REMARK  154  A    between atoms: _390  and  _391
REMARK  155  A    between atoms: _397  and  _399
REMARK  156  A    between atoms: _399  and  _400
REMARK  157  A    between atoms: _399  and  _402
REMARK  158  A    between atoms: _402  and  _403
REMARK  159  A    between atoms: _403  and  _404
REMARK  160  A    between atoms: _404  and  _405
REMARK  161  A    between atoms: _414  and  _416
REMARK  162  A    between atoms: _416  and  _417
REMARK  163  A    between atoms: _416  and  _419
REMARK  164  A    between atoms: _419  and  _420
REMARK  165  A    between atoms: _420  and  _421
REMARK  166  A    between atoms: _421  and  _422
REMARK  167  A    between atoms: _431  and  _433
REMARK  168  A    between atoms: _433  and  _434
REMARK  169  A    between atoms: _433  and  _436
REMARK  170  A    between atoms: _436  and  _437
REMARK  171  A    between atoms: _442  and  _444
REMARK  172  A    between atoms: _444  and  _445
REMARK  173  A    between atoms: _444  and  _447
REMARK  174  A    between atoms: _447  and  _448
REMARK  175  A    between atoms: _450  and  _452
REMARK  176  A    between atoms: _452  and  _453
REMARK  177  A    between atoms: _452  and  _455
REMARK  178  A    between atoms: _455  and  _456
REMARK  179  A    between atoms: _459  and  _461
REMARK  180  A    between atoms: _461  and  _462
REMARK  181  A    between atoms: _461  and  _464
REMARK  182  A    between atoms: _464  and  _465
REMARK  183  A    between atoms: _468  and  _470
REMARK  184  A    between atoms: _470  and  _471
REMARK  185  A    between atoms: _470  and  _473
REMARK  186  A    between atoms: _476  and  _478
REMARK  187  A    between atoms: _478  and  _479
REMARK  188  A    between atoms: _481  and  _483
REMARK  189  A    between atoms: _483  and  _484
REMARK  190  A    between atoms: _483  and  _486
REMARK  191  A    between atoms: _486  and  _487
REMARK  192  A    between atoms: _490  and  _492
REMARK  193  A    between atoms: _492  and  _493
REMARK  194  A    between atoms: _495  and  _497
REMARK  195  A    between atoms: _497  and  _498
REMARK  196  A    between atoms: _497  and  _500
REMARK  197  A    between atoms: _500  and  _501
REMARK  198  A    between atoms: _504  and  _506
REMARK  199  A    between atoms: _506  and  _507
REMARK  200  A    between atoms: _506  and  _509
REMARK  201  A    between atoms: _509  and  _510
REMARK  202  A    between atoms: _515  and  _516
REMARK  203  A    between atoms: _518  and  _520
REMARK  204  A    between atoms: _520  and  _521
REMARK  205  A    between atoms: _520  and  _523
REMARK  206  A    between atoms: _523  and  _524
REMARK  207  A    between atoms: _529  and  _531
REMARK  208  A    between atoms: _531  and  _532
REMARK  209  A    between atoms: _531  and  _534
REMARK  210  A    between atoms: _537  and  _539
REMARK  211  A    between atoms: _539  and  _540
REMARK  212  A    between atoms: _543  and  _545
REMARK  213  A    between atoms: _545  and  _546
REMARK  214  A    between atoms: _545  and  _548
REMARK  215  A    between atoms: _548  and  _549
REMARK  216  A    between atoms: _552  and  _554
REMARK  217  A    between atoms: _554  and  _555
REMARK  218  A    between atoms: _554  and  _557
REMARK  219  A    between atoms: _557  and  _558
REMARK  220  A    between atoms: _558  and  _559
REMARK  221  A    between atoms: _559  and  _560
REMARK  222  A    between atoms: _569  and  _571
REMARK  223  A    between atoms: _571  and  _572
REMARK  224  A    between atoms: _571  and  _574
REMARK  225  A    between atoms: _574  and  _575
REMARK  226  A    between atoms: _578  and  _580
REMARK  227  A    between atoms: _580  and  _581
REMARK  228  A    between atoms: _584  and  _586
REMARK  229  A    between atoms: _586  and  _587
REMARK  230  A    between atoms: _590  and  _592
REMARK  231  A    between atoms: _592  and  _593
REMARK  232  A    between atoms: _592  and  _595
REMARK  233  A    between atoms: _595  and  _596
REMARK  234  A    between atoms: _596  and  _597
REMARK                            x       y       z     vdW  Elec       q    Type
REMARK                         _______ _______ _______ _____ _____    ______ ____
ROOT
ATOM      1  CB  GLN A   1      17.111  11.561  31.745  0.00  0.00    +0.035 C 
ENDROOT
BRANCH   1   2
ATOM      2  CA  GLN A   1      16.348  12.849  32.078  0.00  0.00    +0.134 C 
BRANCH   2   3
ATOM      3  N   GLN A   1      15.960  13.553  30.851  0.00  0.00    -0.239 NA
ATOM      4  H   GLN A   1      16.700  14.028  30.296  0.00  0.00    +0.142 HD
ENDBRANCH   2   3
BRANCH   2   5
ATOM      5  C   GLN A   1      17.222  13.727  32.981  0.00  0.00    +0.224 C 
ATOM      6  O   GLN A   1      18.157  14.381  32.497  0.00  0.00    -0.287 OA
ENDBRANCH   2   5
ENDBRANCH   1   2
BRANCH   1   7
ATOM      7  CG  GLN A   1      17.359  10.617  32.973  0.00  0.00    +0.087 C 
BRANCH   7   8
ATOM      8  CD  GLN A   1      18.592  11.013  33.829  0.00  0.00    +0.219 C 
ATOM      9  NE2 GLN A   1      18.452  10.941  35.158  0.00  0.00    -0.329 N 
ATOM     10 HE21 GLN A   1      19.248  11.192  35.779  0.00  0.00    +0.145 HD
ATOM     11 HE22 GLN A   1      17.548  10.634  35.570  0.00  0.00    +0.145 HD
ATOM     12  OE1 GLN A   1      19.650  11.373  33.293  0.00  0.00    -0.275 OA
ENDBRANCH   7   8
ENDBRANCH   1   7
TORSDOF 5
REMARK  Name = ../refined-set-2016/2xb8/2xb8_pocket.pdb
REMARK  234 active torsions:
REMARK  status: ('A' for Active; 'I' for Inactive)
REMARK    1  A    between atoms: _1  and  _3
REMARK    2  A    between atoms: _3  and  _4
REMARK    3  A    between atoms: _3  and  _6
REMARK    4  A    between atoms: _6  and  _7
REMARK    5  A    between atoms: _12  and  _14
REMARK    6  A    between atoms: _14  and  _15
REMARK    7  A    between atoms: _18  and  _19
REMARK    8  A    between atoms: _24  and  _26
REMARK    9  A    between atoms: _26  and  _27
REMARK   10  A    between atoms: _26  and  _29
REMARK   11  A    between atoms: _29  and  _30
REMARK   12  A    between atoms: _35  and  _37
REMARK   13  A    between atoms: _37  and  _38
REMARK   14  A    between atoms: _37  and  _40
REMARK   15  A    between atoms: _40  and  _41
REMARK   16  A    between atoms: _44  and  _46
REMARK   17  A    between atoms: _46  and  _47
REMARK   18  A    between atoms: _49  and  _51
REMARK   19  A    between atoms: _51  and  _52
REMARK   20  A    between atoms: _51  and  _54
REMARK   21  A    between atoms: _54  and  _55
REMARK   22  A    between atoms: _55  and  _56
REMARK   23  A    between atoms: _56  and  _57
REMARK   24  A    between atoms: _66  and  _68
REMARK   25  A    between atoms: _68  and  _69
REMARK   26  A    between atoms: _68  and  _71
REMARK   27  A    between atoms: _71  and  _72
REMARK   28  A    between atoms: _75  and  _77
REMARK   29  A    between atoms: _77  and  _78
REMARK   30  A    between atoms: _80  and  _82
REMARK   31  A    between atoms: _82  and  _83
REMARK   32  A    between atoms: _82  and  _85
REMARK   33  A    between atoms: _85  and  _86
REMARK   34  A    between atoms: _86  and  _87
REMARK   35  A    between atoms: _87  and  _88
REMARK   36  A    between atoms: _97  and  _99
REMARK   37  A    between atoms: _99  and  _100
REMARK   38  A    between atoms: _99  and  _102
REMARK   39  A    between atoms: _102  and  _103
REMARK   40  A    between atoms: _103  and  _104
REMARK   41  A    between atoms: _104  and  _105
REMARK   42  A    between atoms: _114  and  _116
REMARK   43  A    between atoms: _116  and  _117
REMARK   44  A    between atoms: _116  and  _119
REMARK   45  A    between atoms: _119  and  _120
REMARK   46  A    between atoms: _120  and  _121
REMARK   47  A    between atoms: _125  and  _126
REMARK   48  A    between atoms: _131  and  _133
REMARK   49  A    between atoms: _133  and  _134
REMARK   50  A    between atoms: _133  and  _136
REMARK   51  A    between atoms: _139  and  _141
REMARK   52  A    between atoms: _141  and  _142
REMARK   53  A    between atoms: _141  and  _144
REMARK   54  A    between atoms: _144  and  _145
REMARK   55  A    between atoms: _150  and  _151
REMARK   56  A    between atoms: _153  and  _155
REMARK   57  A    between atoms: _155  and  _156
REMARK   58  A    between atoms: _158  and  _160
REMARK   59  A    between atoms: _160  and  _161
REMARK   60  A    between atoms: _160  and  _163
REMARK   61  A    between atoms: _163  and  _164
REMARK   62  A    between atoms: _167  and  _169
REMARK   63  A    between atoms: _169  and  _170
REMARK   64  A    between atoms: _169  and  _172
REMARK   65  A    between atoms: _172  and  _173
REMARK   66  A    between atoms: _176  and  _178
REMARK   67  A    between atoms: _178  and  _179
REMARK   68  A    between atoms: _178  and  _181
REMARK   69  A    between atoms: _181  and  _182
REMARK   70  A    between atoms: _187  and  _189
REMARK   71  A    between atoms: _189  and  _190
REMARK   72  A    between atoms: _189  and  _192
REMARK   73  A    between atoms: _192  and  _193
REMARK   74  A    between atoms: _196  and  _198
REMARK   75  A    between atoms: _198  and  _199
REMARK   76  A    between atoms: _198  and  _201
REMARK   77  A    between atoms: _201  and  _202
REMARK   78  A    between atoms: _202  and  _203
REMARK   79  A    between atoms: _208  and  _210
REMARK   80  A    between atoms: _210  and  _211
REMARK   81  A    between atoms: _210  and  _213
REMARK   82  A    between atoms: _213  and  _214
REMARK   83  A    between atoms: _217  and  _219
REMARK   84  A    between atoms: _219  and  _220
REMARK   85  A    between atoms: _219  and  _222
REMARK   86  A    between atoms: _222  and  _223
REMARK   87  A    between atoms: _228  and  _230
REMARK   88  A    between atoms: _230  and  _231
REMARK   89  A    between atoms: _234  and  _236
REMARK   90  A    between atoms: _236  and  _237
REMARK   91  A    between atoms: _239  and  _241
REMARK   92  A    between atoms: _241  and  _242
REMARK   93  A    between atoms: _244  and  _246
REMARK   94  A    between atoms: _246  and  _247
REMARK   95  A    between atoms: _246  and  _249
REMARK   96  A    between atoms: _249  and  _250
REMARK   97  A    between atoms: _253  and  _255
REMARK   98  A    between atoms: _255  and  _256
REMARK   99  A    between atoms: _255  and  _258
REMARK  100  A    between atoms: _258  and  _259
REMARK  101  A    between atoms: _262  and  _264
REMARK  102  A    between atoms: _264  and  _265
REMARK  103  A    between atoms: _264  and  _267
REMARK  104  A    between atoms: _267  and  _268
REMARK  105  A    between atoms: _273  and  _275
REMARK  106  A    between atoms: _275  and  _276
REMARK  107  A    between atoms: _275  and  _278
REMARK  108  A    between atoms: _278  and  _279
REMARK  109  A    between atoms: _282  and  _284
REMARK  110  A    between atoms: _284  and  _285
REMARK  111  A    between atoms: _284  and  _287
REMARK  112  A    between atoms: _287  and  _288
REMARK  113  A    between atoms: _288  and  _289
REMARK  114  A    between atoms: _292  and  _294
REMARK  115  A    between atoms: _294  and  _295
REMARK  116  A    between atoms: _294  and  _297
REMARK  117  A    between atoms: _300  and  _302
REMARK  118  A    between atoms: _302  and  _303
REMARK  119  A    between atoms: _302  and  _305
REMARK  120  A    between atoms: _305  and  _306
REMARK  121  A    between atoms: _311  and  _313
REMARK  122  A    between atoms: _313  and  _314
REMARK  123  A    between atoms: _313  and  _316
REMARK  124  A    between atoms: _316  and  _317
REMARK  125  A    between atoms: _320  and  _322
REMARK  126  A    between atoms: _322  and  _323
REMARK  127  A    between atoms: _322  and  _325
REMARK  128  A    between atoms: _325  and  _326
REMARK  129  A    between atoms: _328  and  _330
REMARK  130  A    between atoms: _330  and  _331
REMARK  131  A    between atoms: _330  and  _333
REMARK  132  A    between atoms: _333  and  _334
REMARK  133  A    between atoms: _339  and  _341
REMARK  134  A    between atoms: _341  and  _342
REMARK  135  A    between atoms: _341  and  _344
REMARK  136  A    between atoms: _347  and  _349
REMARK  137  A    between atoms: _349  and  _350
REMARK  138  A    between atoms: _349  and  _352
REMARK  139  A    between atoms: _352  and  _353
REMARK  140  A    between atoms: _358  and  _360
REMARK  141  A    between atoms: _360  and  _361
REMARK  142  A    between atoms: _360  and  _363
REMARK  143  A    between atoms: _363  and  _364
REMARK  144  A    between atoms: _364  and  _365
REMARK  145  A    between atoms: _365  and  _366
REMARK  146  A    between atoms: _375  and  _377
REMARK  147  A    between atoms: _377  and  _378
REMARK  148  A    between atoms: _377  and  _380
REMARK  149  A    between atoms: _380  and  _381
REMARK  150  A    between atoms: _381  and  _382
REMARK  151  A    between atoms: _385  and  _387
REMARK  152  A    between atoms: _387  and  _388
REMARK  153  A    between atoms: _387  and  _390
REMARK  154  A    between atoms: _390  and  _391
REMARK  155  A    between atoms: _397  and  _399
REMARK  156  A    between atoms: _399  and  _400
REMARK  157  A    between atoms: _399  and  _402
REMARK  158  A    between atoms: _402  and  _403
REMARK  159  A    between atoms: _403  and  _404
REMARK  160  A    between atoms: _404  and  _405
REMARK  161  A    between atoms: _414  and  _416
REMARK  162  A    between atoms: _416  and  _417
REMARK  163  A    between atoms: _416  and  _419
REMARK  164  A    between atoms: _419  and  _420
REMARK  165  A    between atoms: _420  and  _421
REMARK  166  A    between atoms: _421  and  _422
REMARK  167  A    between atoms: _431  and  _433
REMARK  168  A    between atoms: _433  and  _434
REMARK  169  A    between atoms: _433  and  _436
REMARK  170  A    between atoms: _436  and  _437
REMARK  171  A    between atoms: _442  and  _444
REMARK  172  A    between atoms: _444  and  _445
REMARK  173  A    between atoms: _444  and  _447
REMARK  174  A    between atoms: _447  and  _448
REMARK  175  A    between atoms: _450  and  _452
REMARK  176  A    between atoms: _452  and  _453
REMARK  177  A    between atoms: _452  and  _455
REMARK  178  A    between atoms: _455  and  _456
REMARK  179  A    between atoms: _459  and  _461
REMARK  180  A    between atoms: _461  and  _462
REMARK  181  A    between atoms: _461  and  _464
REMARK  182  A    between atoms: _464  and  _465
REMARK  183  A    between atoms: _468  and  _470
REMARK  184  A    between atoms: _470  and  _471
REMARK  185  A    between atoms: _470  and  _473
REMARK  186  A    between atoms: _476  and  _478
REMARK  187  A    between atoms: _478  and  _479
REMARK  188  A    between atoms: _481  and  _483
REMARK  189  A    between atoms: _483  and  _484
REMARK  190  A    between atoms: _483  and  _486
REMARK  191  A    between atoms: _486  and  _487
REMARK  192  A    between atoms: _490  and  _492
REMARK  193  A    between atoms: _492  and  _493
REMARK  194  A    between atoms: _495  and  _497
REMARK  195  A    between atoms: _497  and  _498
REMARK  196  A    between atoms: _497  and  _500
REMARK  197  A    between atoms: _500  and  _501
REMARK  198  A    between atoms: _504  and  _506
REMARK  199  A    between atoms: _506  and  _507
REMARK  200  A    between atoms: _506  and  _509
REMARK  201  A    between atoms: _509  and  _510
REMARK  202  A    between atoms: _515  and  _516
REMARK  203  A    between atoms: _518  and  _520
REMARK  204  A    between atoms: _520  and  _521
REMARK  205  A    between atoms: _520  and  _523
REMARK  206  A    between atoms: _523  and  _524
REMARK  207  A    between atoms: _529  and  _531
REMARK  208  A    between atoms: _531  and  _532
REMARK  209  A    between atoms: _531  and  _534
REMARK  210  A    between atoms: _537  and  _539
REMARK  211  A    between atoms: _539  and  _540
REMARK  212  A    between atoms: _543  and  _545
REMARK  213  A    between atoms: _545  and  _546
REMARK  214  A    between atoms: _545  and  _548
REMARK  215  A    between atoms: _548  and  _549
REMARK  216  A    between atoms: _552  and  _554
REMARK  217  A    between atoms: _554  and  _555
REMARK  218  A    between atoms: _554  and  _557
REMARK  219  A    between atoms: _557  and  _558
REMARK  220  A    between atoms: _558  and  _559
REMARK  221  A    between atoms: _559  and  _560
REMARK  222  A    between atoms: _569  and  _571
REMARK  223  A    between atoms: _571  and  _572
REMARK  224  A    between atoms: _571  and  _574
REMARK  225  A    between atoms: _574  and  _575
REMARK  226  A    between atoms: _578  and  _580
REMARK  227  A    between atoms: _580  and  _581
REMARK  228  A    between atoms: _584  and  _586
REMARK  229  A    between atoms: _586  and  _587
REMARK  230  A    between atoms: _590  and  _592
REMARK  231  A    between atoms: _592  and  _593
REMARK  232  A    between atoms: _592  and  _595
REMARK  233  A    between atoms: _595  and  _596
REMARK  234  A    between atoms: _596  and  _597
REMARK                            x       y       z     vdW  Elec       q    Type
REMARK                         _______ _______ _______ _____ _____    ______ ____
ROOT
ATOM      1  C   GLY A   5      12.397   7.981  44.092  0.00  0.00    +0.243 C 
ATOM      2  O   GLY A   5      11.760   7.772  45.134  0.00  0.00    -0.273 OA
ATOM      3  N   LEU A   6      12.377   9.142  43.432  0.00  0.00    -0.297 N 
ATOM      4  H   LEU A   6      12.984   9.254  42.595  0.00  0.00    +0.150 HD
ENDROOT
BRANCH   3   5
ATOM      5  CA  LEU A   6      11.538  10.253  43.842  0.00  0.00    +0.149 C 
BRANCH   5   6
ATOM      6  C   LEU A   6      10.061   9.879  43.785  0.00  0.00    +0.241 C 
ATOM      7  O   LEU A   6       9.247  10.527  44.429  0.00  0.00    -0.273 OA
ATOM      8  N   THR A   7       9.705   8.856  43.001  0.00  0.00    -0.295 N 
ATOM      9  H   THR A   7      10.420   8.392  42.405  0.00  0.00    +0.150 HD
BRANCH   8  10
ATOM     10  CA  THR A   7       8.313   8.380  42.972  0.00  0.00    +0.176 C 
BRANCH  10  11
ATOM     11  C   THR A   7       7.761   8.126  44.396  0.00  0.00    +0.243 C 
ATOM     12  N   HIS A   8       8.604   7.588  45.278  0.00  0.00    -0.297 N 
ATOM     13  H   HIS A   8       9.605   7.496  45.010  0.00  0.00    +0.150 HD
ATOM     14  O   THR A   7       6.625   8.432  44.683  0.00  0.00    -0.273 OA
BRANCH  12  15
ATOM     15  CA  HIS A   8       8.196   7.122  46.599  0.00  0.00    +0.155 C 
BRANCH  15  16
ATOM     16  C   HIS A   8       8.460   8.163  47.684  0.00  0.00    +0.241 C 
ATOM     17  O   HIS A   8       8.052   7.989  48.829  0.00  0.00    -0.273 OA
ATOM     18  N   THR A   9       9.151   9.243  47.342  0.00  0.00    -0.296 N 
ATOM     19  H   THR A   9       9.321   9.461  46.339  0.00  0.00    +0.150 HD
BRANCH  18  20
ATOM     20  CA  THR A   9       9.672  10.126  48.388  0.00  0.00    +0.164 C 
BRANCH  20  21
ATOM     21  C   THR A   9       9.305  11.604  48.281  0.00  0.00    +0.229 C 
ATOM     22  O   THR A   9       9.282  12.282  49.323  0.00  0.00    -0.286 OA
ENDBRANCH  20  21
BRANCH  20  23
ATOM     23  CB  THR A   9      11.194  10.017  48.468  0.00  0.00    +0.136 C 
ATOM     24  CG2 THR A   9      11.637   8.542  48.648  0.00  0.00    +0.034 C 
BRANCH  23  25
ATOM     25  OG1 THR A   9      11.768  10.559  47.281  0.00  0.00    -0.382 OA
ATOM     26  HG1 THR A   9      11.507  11.510  47.194  0.00  0.00    +0.210 HD
ENDBRANCH  23  25
ENDBRANCH  20  23
ENDBRANCH  18  20
ENDBRANCH  15  16
BRANCH  15  27
ATOM     27  CB  HIS A   8       8.936   5.811  46.928  0.00  0.00    +0.076 C 
BRANCH  27  28
ATOM     28  CG  HIS A   8       9.074   4.899  45.749  0.00  0.00    +0.082 A 
ATOM     29  ND1 HIS A   8       7.995   4.254  45.177  0.00  0.00    -0.227 NA
ATOM     30  CE1 HIS A   8       8.417   3.562  44.128  0.00  0.00    +0.199 A 
ATOM     31  NE2 HIS A   8       9.724   3.732  44.002  0.00  0.00    -0.221 NA
ATOM     32  CD2 HIS A   8      10.157   4.567  45.000  0.00  0.00    +0.115 A 
ENDBRANCH  27  28
ENDBRANCH  15  27
ENDBRANCH  12  15
ENDBRANCH  10  11
BRANCH  10  33
ATOM     33  CB  THR A   7       8.210   7.077  42.167  0.00  0.00    +0.137 C 
ATOM     34  CG2 THR A   7       6.762   6.638  42.026  0.00  0.00    +0.034 C 
BRANCH  33  35
ATOM     35  OG1 THR A   7       8.800   7.272  40.872  0.00  0.00    -0.382 OA
ATOM     36  HG1 THR A   7       9.752   7.522  40.979  0.00  0.00    +0.210 HD
ENDBRANCH  33  35
ENDBRANCH  10  33
ENDBRANCH   8  10
ENDBRANCH   5   6
BRANCH   5  37
ATOM     37  CB  LEU A   6      11.798  11.482  42.953  0.00  0.00    +0.029 C 
BRANCH  37  38
ATOM     38  CG  LEU A   6      13.238  12.028  43.002  0.00  0.00    +0.002 C 
ATOM     39  CD2 LEU A   6      13.673  12.334  44.462  0.00  0.00    +0.000 C 
ATOM     40  CD1 LEU A   6      13.335  13.247  42.102  0.00  0.00    +0.000 C 
ENDBRANCH  37  38
ENDBRANCH   5  37
ENDBRANCH   3   5
BRANCH   1  41
ATOM     41  CA  GLY A   5      13.294   6.908  43.503  0.00  0.00    +0.176 C 
BRANCH  41  43
ATOM     42  C   GLY A   4      12.438   6.860  41.214  0.00  0.00    +0.243 C 
ATOM     43  N   GLY A   5      13.466   6.989  42.066  0.00  0.00    -0.295 N 
ATOM     44  H   GLY A   5      14.419   7.153  41.683  0.00  0.00    +0.150 HD
ATOM     45  O   GLY A   4      11.275   6.740  41.574  0.00  0.00    -0.273 OA
BRANCH  42  46
ATOM     46  CA  GLY A   4      12.750   6.909  39.732  0.00  0.00    +0.176 C 
BRANCH  46  49
ATOM     47  C   ALA A   3      11.578   8.999  39.309  0.00  0.00    +0.241 C 
ATOM     48  O   ALA A   3      12.237   9.603  40.168  0.00  0.00    -0.273 OA
ATOM     49  N   GLY A   4      11.760   7.705  39.025  0.00  0.00    -0.295 N 
ATOM     50  H   GLY A   4      11.182   7.259  38.284  0.00  0.00    +0.150 HD
BRANCH  47  51
ATOM     51  CA  ALA A   3      10.471   9.734  38.563  0.00  0.00    +0.149 C 
ATOM     52  CB  ALA A   3       9.549  10.381  39.575  0.00  0.00    +0.031 C 
BRANCH  51  54
ATOM     53  C   ASN A   2      10.130   8.578  36.422  0.00  0.00    +0.241 C 
ATOM     54  N   ALA A   3       9.699   8.863  37.646  0.00  0.00    -0.297 N 
ATOM     55  H   ALA A   3       8.795   8.464  37.969  0.00  0.00    +0.150 HD
ATOM     56  O   ASN A   2      11.229   8.905  36.029  0.00  0.00    -0.273 OA
BRANCH  53  57
ATOM     57  CA  ASN A   2       9.171   7.839  35.498  0.00  0.00    +0.158 C 
BRANCH  57  60
ATOM     58  C   LEU A   1       7.248   9.146  34.721  0.00  0.00    +0.238 C 
ATOM     59  O   LEU A   1       6.398   8.393  35.204  0.00  0.00    -0.274 OA
ATOM     60  N   ASN A   2       8.559   8.890  34.694  0.00  0.00    -0.297 N 
ATOM     61  H   ASN A   2       9.167   9.463  34.075  0.00  0.00    +0.150 HD
BRANCH  58  62
ATOM     62  CA  LEU A   1       6.826  10.424  34.063  0.00  0.00    +0.145 C 
BRANCH  62  63
ATOM     63  N   LEU A   1       5.840  10.146  33.000  0.00  0.00    -0.238 NA
ATOM     64  H   LEU A   1       4.994   9.580  33.212  0.00  0.00    +0.142 HD
ENDBRANCH  62  63
BRANCH  62  65
ATOM     65  CB  LEU A   1       6.240  11.391  35.097  0.00  0.00    +0.026 C 
BRANCH  65  66
ATOM     66  CG  LEU A   1       7.071  11.801  36.320  0.00  0.00    +0.002 C 
ATOM     67  CD2 LEU A   1       6.197  12.668  37.229  0.00  0.00    +0.000 C 
ATOM     68  CD1 LEU A   1       8.403  12.511  36.009  0.00  0.00    +0.000 C 
ENDBRANCH  65  66
ENDBRANCH  62  65
ENDBRANCH  58  62
ENDBRANCH  57  60
BRANCH  57  69
ATOM     69  CB  ASN A   2       9.886   6.803  34.614  0.00  0.00    +0.114 C 
BRANCH  69  70
ATOM     70  CG  ASN A   2      10.530   5.683  35.423  0.00  0.00    +0.222 C 
ATOM     71  OD1 ASN A   2      10.591   5.759  36.660  0.00  0.00    -0.275 OA
ATOM     72  ND2 ASN A   2      10.993   4.609  34.730  0.00  0.00    -0.329 N 
ATOM     73 HD21 ASN A   2      11.419   3.807  35.237  0.00  0.00    +0.145 HD
ATOM     74 HD22 ASN A   2      10.921   4.589  33.693  0.00  0.00    +0.145 HD
ENDBRANCH  69  70
ENDBRANCH  57  69
ENDBRANCH  53  57
ENDBRANCH  51  54
ENDBRANCH  47  51
ENDBRANCH  46  49
ENDBRANCH  42  46
ENDBRANCH  41  43
ENDBRANCH   1  41
TORSDOF 30
REMARK  Name = ../refined-set-2016/2xb8/2xb8_pocket.pdb
REMARK  234 active torsions:
REMARK  status: ('A' for Active; 'I' for Inactive)
REMARK    1  A    between atoms: _1  and  _3
REMARK    2  A    between atoms: _3  and  _4
REMARK    3  A    between atoms: _3  and  _6
REMARK    4  A    between atoms: _6  and  _7
REMARK    5  A    between atoms: _12  and  _14
REMARK    6  A    between atoms: _14  and  _15
REMARK    7  A    between atoms: _18  and  _19
REMARK    8  A    between atoms: _24  and  _26
REMARK    9  A    between atoms: _26  and  _27
REMARK   10  A    between atoms: _26  and  _29
REMARK   11  A    between atoms: _29  and  _30
REMARK   12  A    between atoms: _35  and  _37
REMARK   13  A    between atoms: _37  and  _38
REMARK   14  A    between atoms: _37  and  _40
REMARK   15  A    between atoms: _40  and  _41
REMARK   16  A    between atoms: _44  and  _46
REMARK   17  A    between atoms: _46  and  _47
REMARK   18  A    between atoms: _49  and  _51
REMARK   19  A    between atoms: _51  and  _52
REMARK   20  A    between atoms: _51  and  _54
REMARK   21  A    between atoms: _54  and  _55
REMARK   22  A    between atoms: _55  and  _56
REMARK   23  A    between atoms: _56  and  _57
REMARK   24  A    between atoms: _66  and  _68
REMARK   25  A    between atoms: _68  and  _69
REMARK   26  A    between atoms: _68  and  _71
REMARK   27  A    between atoms: _71  and  _72
REMARK   28  A    between atoms: _75  and  _77
REMARK   29  A    between atoms: _77  and  _78
REMARK   30  A    between atoms: _80  and  _82
REMARK   31  A    between atoms: _82  and  _83
REMARK   32  A    between atoms: _82  and  _85
REMARK   33  A    between atoms: _85  and  _86
REMARK   34  A    between atoms: _86  and  _87
REMARK   35  A    between atoms: _87  and  _88
REMARK   36  A    between atoms: _97  and  _99
REMARK   37  A    between atoms: _99  and  _100
REMARK   38  A    between atoms: _99  and  _102
REMARK   39  A    between atoms: _102  and  _103
REMARK   40  A    between atoms: _103  and  _104
REMARK   41  A    between atoms: _104  and  _105
REMARK   42  A    between atoms: _114  and  _116
REMARK   43  A    between atoms: _116  and  _117
REMARK   44  A    between atoms: _116  and  _119
REMARK   45  A    between atoms: _119  and  _120
REMARK   46  A    between atoms: _120  and  _121
REMARK   47  A    between atoms: _125  and  _126
REMARK   48  A    between atoms: _131  and  _133
REMARK   49  A    between atoms: _133  and  _134
REMARK   50  A    between atoms: _133  and  _136
REMARK   51  A    between atoms: _139  and  _141
REMARK   52  A    between atoms: _141  and  _142
REMARK   53  A    between atoms: _141  and  _144
REMARK   54  A    between atoms: _144  and  _145
REMARK   55  A    between atoms: _150  and  _151
REMARK   56  A    between atoms: _153  and  _155
REMARK   57  A    between atoms: _155  and  _156
REMARK   58  A    between atoms: _158  and  _160
REMARK   59  A    between atoms: _160  and  _161
REMARK   60  A    between atoms: _160  and  _163
REMARK   61  A    between atoms: _163  and  _164
REMARK   62  A    between atoms: _167  and  _169
REMARK   63  A    between atoms: _169  and  _170
REMARK   64  A    between atoms: _169  and  _172
REMARK   65  A    between atoms: _172  and  _173
REMARK   66  A    between atoms: _176  and  _178
REMARK   67  A    between atoms: _178  and  _179
REMARK   68  A    between atoms: _178  and  _181
REMARK   69  A    between atoms: _181  and  _182
REMARK   70  A    between atoms: _187  and  _189
REMARK   71  A    between atoms: _189  and  _190
REMARK   72  A    between atoms: _189  and  _192
REMARK   73  A    between atoms: _192  and  _193
REMARK   74  A    between atoms: _196  and  _198
REMARK   75  A    between atoms: _198  and  _199
REMARK   76  A    between atoms: _198  and  _201
REMARK   77  A    between atoms: _201  and  _202
REMARK   78  A    between atoms: _202  and  _203
REMARK   79  A    between atoms: _208  and  _210
REMARK   80  A    between atoms: _210  and  _211
REMARK   81  A    between atoms: _210  and  _213
REMARK   82  A    between atoms: _213  and  _214
REMARK   83  A    between atoms: _217  and  _219
REMARK   84  A    between atoms: _219  and  _220
REMARK   85  A    between atoms: _219  and  _222
REMARK   86  A    between atoms: _222  and  _223
REMARK   87  A    between atoms: _228  and  _230
REMARK   88  A    between atoms: _230  and  _231
REMARK   89  A    between atoms: _234  and  _236
REMARK   90  A    between atoms: _236  and  _237
REMARK   91  A    between atoms: _239  and  _241
REMARK   92  A    between atoms: _241  and  _242
REMARK   93  A    between atoms: _244  and  _246
REMARK   94  A    between atoms: _246  and  _247
REMARK   95  A    between atoms: _246  and  _249
REMARK   96  A    between atoms: _249  and  _250
REMARK   97  A    between atoms: _253  and  _255
REMARK   98  A    between atoms: _255  and  _256
REMARK   99  A    between atoms: _255  and  _258
REMARK  100  A    between atoms: _258  and  _259
REMARK  101  A    between atoms: _262  and  _264
REMARK  102  A    between atoms: _264  and  _265
REMARK  103  A    between atoms: _264  and  _267
REMARK  104  A    between atoms: _267  and  _268
REMARK  105  A    between atoms: _273  and  _275
REMARK  106  A    between atoms: _275  and  _276
REMARK  107  A    between atoms: _275  and  _278
REMARK  108  A    between atoms: _278  and  _279
REMARK  109  A    between atoms: _282  and  _284
REMARK  110  A    between atoms: _284  and  _285
REMARK  111  A    between atoms: _284  and  _287
REMARK  112  A    between atoms: _287  and  _288
REMARK  113  A    between atoms: _288  and  _289
REMARK  114  A    between atoms: _292  and  _294
REMARK  115  A    between atoms: _294  and  _295
REMARK  116  A    between atoms: _294  and  _297
REMARK  117  A    between atoms: _300  and  _302
REMARK  118  A    between atoms: _302  and  _303
REMARK  119  A    between atoms: _302  and  _305
REMARK  120  A    between atoms: _305  and  _306
REMARK  121  A    between atoms: _311  and  _313
REMARK  122  A    between atoms: _313  and  _314
REMARK  123  A    between atoms: _313  and  _316
REMARK  124  A    between atoms: _316  and  _317
REMARK  125  A    between atoms: _320  and  _322
REMARK  126  A    between atoms: _322  and  _323
REMARK  127  A    between atoms: _322  and  _325
REMARK  128  A    between atoms: _325  and  _326
REMARK  129  A    between atoms: _328  and  _330
REMARK  130  A    between atoms: _330  and  _331
REMARK  131  A    between atoms: _330  and  _333
REMARK  132  A    between atoms: _333  and  _334
REMARK  133  A    between atoms: _339  and  _341
REMARK  134  A    between atoms: _341  and  _342
REMARK  135  A    between atoms: _341  and  _344
REMARK  136  A    between atoms: _347  and  _349
REMARK  137  A    between atoms: _349  and  _350
REMARK  138  A    between atoms: _349  and  _352
REMARK  139  A    between atoms: _352  and  _353
REMARK  140  A    between atoms: _358  and  _360
REMARK  141  A    between atoms: _360  and  _361
REMARK  142  A    between atoms: _360  and  _363
REMARK  143  A    between atoms: _363  and  _364
REMARK  144  A    between atoms: _364  and  _365
REMARK  145  A    between atoms: _365  and  _366
REMARK  146  A    between atoms: _375  and  _377
REMARK  147  A    between atoms: _377  and  _378
REMARK  148  A    between atoms: _377  and  _380
REMARK  149  A    between atoms: _380  and  _381
REMARK  150  A    between atoms: _381  and  _382
REMARK  151  A    between atoms: _385  and  _387
REMARK  152  A    between atoms: _387  and  _388
REMARK  153  A    between atoms: _387  and  _390
REMARK  154  A    between atoms: _390  and  _391
REMARK  155  A    between atoms: _397  and  _399
REMARK  156  A    between atoms: _399  and  _400
REMARK  157  A    between atoms: _399  and  _402
REMARK  158  A    between atoms: _402  and  _403
REMARK  159  A    between atoms: _403  and  _404
REMARK  160  A    between atoms: _404  and  _405
REMARK  161  A    between atoms: _414  and  _416
REMARK  162  A    between atoms: _416  and  _417
REMARK  163  A    between atoms: _416  and  _419
REMARK  164  A    between atoms: _419  and  _420
REMARK  165  A    between atoms: _420  and  _421
REMARK  166  A    between atoms: _421  and  _422
REMARK  167  A    between atoms: _431  and  _433
REMARK  168  A    between atoms: _433  and  _434
REMARK  169  A    between atoms: _433  and  _436
REMARK  170  A    between atoms: _436  and  _437
REMARK  171  A    between atoms: _442  and  _444
REMARK  172  A    between atoms: _444  and  _445
REMARK  173  A    between atoms: _444  and  _447
REMARK  174  A    between atoms: _447  and  _448
REMARK  175  A    between atoms: _450  and  _452
REMARK  176  A    between atoms: _452  and  _453
REMARK  177  A    between atoms: _452  and  _455
REMARK  178  A    between atoms: _455  and  _456
REMARK  179  A    between atoms: _459  and  _461
REMARK  180  A    between atoms: _461  and  _462
REMARK  181  A    between atoms: _461  and  _464
REMARK  182  A    between atoms: _464  and  _465
REMARK  183  A    between atoms: _468  and  _470
REMARK  184  A    between atoms: _470  and  _471
REMARK  185  A    between atoms: _470  and  _473
REMARK  186  A    between atoms: _476  and  _478
REMARK  187  A    between atoms: _478  and  _479
REMARK  188  A    between atoms: _481  and  _483
REMARK  189  A    between atoms: _483  and  _484
REMARK  190  A    between atoms: _483  and  _486
REMARK  191  A    between atoms: _486  and  _487
REMARK  192  A    between atoms: _490  and  _492
REMARK  193  A    between atoms: _492  and  _493
REMARK  194  A    between atoms: _495  and  _497
REMARK  195  A    between atoms: _497  and  _498
REMARK  196  A    between atoms: _497  and  _500
REMARK  197  A    between atoms: _500  and  _501
REMARK  198  A    between atoms: _504  and  _506
REMARK  199  A    between atoms: _506  and  _507
REMARK  200  A    between atoms: _506  and  _509
REMARK  201  A    between atoms: _509  and  _510
REMARK  202  A    between atoms: _515  and  _516
REMARK  203  A    between atoms: _518  and  _520
REMARK  204  A    between atoms: _520  and  _521
REMARK  205  A    between atoms: _520  and  _523
REMARK  206  A    between atoms: _523  and  _524
REMARK  207  A    between atoms: _529  and  _531
REMARK  208  A    between atoms: _531  and  _532
REMARK  209  A    between atoms: _531  and  _534
REMARK  210  A    between atoms: _537  and  _539
REMARK  211  A    between atoms: _539  and  _540
REMARK  212  A    between atoms: _543  and  _545
REMARK  213  A    between atoms: _545  and  _546
REMARK  214  A    between atoms: _545  and  _548
REMARK  215  A    between atoms: _548  and  _549
REMARK  216  A    between atoms: _552  and  _554
REMARK  217  A    between atoms: _554  and  _555
REMARK  218  A    between atoms: _554  and  _557
REMARK  219  A    between atoms: _557  and  _558
REMARK  220  A    between atoms: _558  and  _559
REMARK  221  A    between atoms: _559  and  _560
REMARK  222  A    between atoms: _569  and  _571
REMARK  223  A    between atoms: _571  and  _572
REMARK  224  A    between atoms: _571  and  _574
REMARK  225  A    between atoms: _574  and  _575
REMARK  226  A    between atoms: _578  and  _580
REMARK  227  A    between atoms: _580  and  _581
REMARK  228  A    between atoms: _584  and  _586
REMARK  229  A    between atoms: _586  and  _587
REMARK  230  A    between atoms: _590  and  _592
REMARK  231  A    between atoms: _592  and  _593
REMARK  232  A    between atoms: _592  and  _595
REMARK  233  A    between atoms: _595  and  _596
REMARK  234  A    between atoms: _596  and  _597
REMARK                            x       y       z     vdW  Elec       q    Type
REMARK                         _______ _______ _______ _____ _____    ______ ____
ROOT
ATOM      1  C   ILE A   4       9.914  -1.633  34.710  0.00  0.00    +0.241 C 
ATOM      2  N   SER A   5      10.372  -1.678  35.968  0.00  0.00    -0.295 N 
ATOM      3  H   SER A   5      10.838  -0.834  36.357  0.00  0.00    +0.150 HD
ATOM      4  O   ILE A   4       9.314  -2.574  34.153  0.00  0.00    -0.273 OA
ENDROOT
BRANCH   2   5
ATOM      5  CA  SER A   5      10.246  -2.863  36.822  0.00  0.00    +0.178 C 
BRANCH   5   6
ATOM      6  C   SER A   5       8.817  -2.912  37.439  0.00  0.00    +0.243 C 
ATOM      7  N   ASN A   6       8.403  -4.089  37.895  0.00  0.00    -0.297 N 
ATOM      8  H   ASN A   6       8.992  -4.932  37.741  0.00  0.00    +0.150 HD
ATOM      9  O   SER A   5       8.113  -1.908  37.507  0.00  0.00    -0.273 OA
BRANCH   7  10
ATOM     10  CA  ASN A   6       7.125  -4.221  38.614  0.00  0.00    +0.158 C 
BRANCH  10  11
ATOM     11  C   ASN A   6       7.368  -3.843  40.077  0.00  0.00    +0.241 C 
ATOM     12  O   ASN A   6       7.823  -4.653  40.877  0.00  0.00    -0.273 OA
ATOM     13  N   VAL A   7       7.099  -2.598  40.428  0.00  0.00    -0.297 N 
ATOM     14  H   VAL A   7       6.660  -1.952  39.742  0.00  0.00    +0.150 HD
BRANCH  13  15
ATOM     15  CA  VAL A   7       7.415  -2.120  41.777  0.00  0.00    +0.149 C 
BRANCH  15  16
ATOM     16  C   VAL A   7       6.617  -2.884  42.856  0.00  0.00    +0.241 C 
ATOM     17  O   VAL A   7       7.027  -2.937  43.999  0.00  0.00    -0.273 OA
ATOM     18  N   HIS A   8       5.494  -3.486  42.473  0.00  0.00    -0.298 N 
ATOM     19  H   HIS A   8       5.201  -3.434  41.476  0.00  0.00    +0.150 HD
BRANCH  18  20
ATOM     20  CA  HIS A   8       4.672  -4.212  43.419  0.00  0.00    +0.143 C 
BRANCH  20  21
ATOM     21  C   HIS A   8       5.210  -5.591  43.744  0.00  0.00    +0.227 C 
ATOM     22  O   HIS A   8       4.632  -6.262  44.570  0.00  0.00    -0.286 OA
ENDBRANCH  20  21
BRANCH  20  23
ATOM     23  CB  HIS A   8       3.211  -4.301  42.941  0.00  0.00    +0.075 C 
BRANCH  23  24
ATOM     24  CG  HIS A   8       2.589  -2.965  42.699  0.00  0.00    +0.082 A 
ATOM     25  ND1 HIS A   8       2.237  -2.117  43.725  0.00  0.00    -0.227 NA
ATOM     26  CE1 HIS A   8       1.745  -0.999  43.215  0.00  0.00    +0.199 A 
ATOM     27  NE2 HIS A   8       1.775  -1.089  41.897  0.00  0.00    -0.221 NA
ATOM     28  CD2 HIS A   8       2.301  -2.307  41.549  0.00  0.00    +0.115 A 
ENDBRANCH  23  24
ENDBRANCH  20  23
ENDBRANCH  18  20
ENDBRANCH  15  16
BRANCH  15  29
ATOM     29  CB  VAL A   7       7.170  -0.598  41.934  0.00  0.00    +0.027 C 
ATOM     30  CG2 VAL A   7       5.698  -0.229  41.584  0.00  0.00    +0.002 C 
ATOM     31  CG1 VAL A   7       8.187   0.220  41.108  0.00  0.00    +0.002 C 
ENDBRANCH  15  29
ENDBRANCH  13  15
ENDBRANCH  10  11
BRANCH  10  32
ATOM     32  CB  ASN A   6       6.545  -5.646  38.476  0.00  0.00    +0.114 C 
BRANCH  32  33
ATOM     33  CG  ASN A   6       5.198  -5.788  39.182  0.00  0.00    +0.222 C 
ATOM     34  OD1 ASN A   6       4.777  -4.878  39.888  0.00  0.00    -0.275 OA
ATOM     35  ND2 ASN A   6       4.498  -6.907  38.956  0.00  0.00    -0.329 N 
ATOM     36 HD21 ASN A   6       3.559  -7.029  39.386  0.00  0.00    +0.145 HD
ATOM     37 HD22 ASN A   6       4.893  -7.654  38.350  0.00  0.00    +0.145 HD
ENDBRANCH  32  33
ENDBRANCH  10  32
ENDBRANCH   7  10
ENDBRANCH   5   6
BRANCH   5  38
ATOM     38  CB  SER A   5      11.305  -2.822  37.964  0.00  0.00    +0.166 C 
BRANCH  38  39
ATOM     39  OG  SER A   5      11.029  -1.796  38.962  0.00  0.00    -0.380 OA
ATOM     40  H   SER A   5      11.022  -0.907  38.526  0.00  0.00    +0.211 HD
ENDBRANCH  38  39
ENDBRANCH   5  38
ENDBRANCH   2   5
BRANCH   1  41
ATOM     41  CA  ILE A   4      10.120  -0.318  33.972  0.00  0.00    +0.149 C 
BRANCH  41  43
ATOM     42  C   HIS A   3       8.294   0.939  34.995  0.00  0.00    +0.241 C 
ATOM     43  N   ILE A   4       9.586   0.749  34.782  0.00  0.00    -0.297 N 
ATOM     44  H   ILE A   4      10.257   1.409  35.225  0.00  0.00    +0.150 HD
ATOM     45  O   HIS A   3       7.413   0.197  34.569  0.00  0.00    -0.273 OA
BRANCH  42  46
ATOM     46  CA  HIS A   3       7.966   2.194  35.793  0.00  0.00    +0.155 C 
BRANCH  46  49
ATOM     47  C   VAL A   2       6.734   4.130  34.919  0.00  0.00    +0.241 C 
ATOM     48  O   VAL A   2       7.557   4.914  35.333  0.00  0.00    -0.273 OA
ATOM     49  N   HIS A   3       6.773   2.832  35.198  0.00  0.00    -0.297 N 
ATOM     50  H   HIS A   3       5.939   2.247  34.991  0.00  0.00    +0.150 HD
BRANCH  47  51
ATOM     51  CA  VAL A   2       5.559   4.609  34.086  0.00  0.00    +0.148 C 
BRANCH  51  53
ATOM     52  C   GLU A   1       3.700   5.919  34.889  0.00  0.00    +0.238 C 
ATOM     53  N   VAL A   2       5.004   5.806  34.686  0.00  0.00    -0.297 N 
ATOM     54  H   VAL A   2       5.637   6.585  34.960  0.00  0.00    +0.150 HD
ATOM     55  O   GLU A   1       2.919   5.031  34.594  0.00  0.00    -0.274 OA
BRANCH  52  56
ATOM     56  CA  GLU A   1       3.200   7.233  35.493  0.00  0.00    +0.145 C 
BRANCH  56  57
ATOM     57  N   GLU A   1       2.056   7.698  34.700  0.00  0.00    -0.238 NA
ATOM     58  H   GLU A   1       1.098   7.432  35.004  0.00  0.00    +0.142 HD
ENDBRANCH  56  57
BRANCH  56  59
ATOM     59  CB  GLU A   1       2.802   7.089  36.989  0.00  0.00    +0.038 C 
BRANCH  59  60
ATOM     60  CG  GLU A   1       3.896   6.532  37.933  0.00  0.00    +0.116 C 
BRANCH  60  61
ATOM     61  CD  GLU A   1       3.426   6.330  39.384  0.00  0.00    +0.365 C 
ATOM     62  OE2 GLU A   1       4.250   5.940  40.229  0.00  0.00    -0.246 OA
ATOM     63  OE1 GLU A   1       2.233   6.539  39.692  0.00  0.00    -0.246 OA
ENDBRANCH  60  61
ENDBRANCH  59  60
ENDBRANCH  56  59
ENDBRANCH  52  56
ENDBRANCH  51  53
BRANCH  51  64
ATOM     64  CB  VAL A   2       5.963   4.807  32.574  0.00  0.00    +0.027 C 
ATOM     65  CG2 VAL A   2       6.761   3.585  32.047  0.00  0.00    +0.002 C 
ATOM     66  CG1 VAL A   2       4.710   5.004  31.674  0.00  0.00    +0.002 C 
ENDBRANCH  51  64
ENDBRANCH  47  51
ENDBRANCH  46  49
BRANCH  46  67
ATOM     67  CB  HIS A   3       7.788   1.889  37.287  0.00  0.00    +0.076 C 
BRANCH  67  68
ATOM     68  CG  HIS A   3       7.433   3.094  38.090  0.00  0.00    +0.082 A 
ATOM     69  CD2 HIS A   3       6.265   3.479  38.653  0.00  0.00    +0.115 A 
ATOM     70  NE2 HIS A   3       6.480   4.703  39.241  0.00  0.00    -0.221 NA
ATOM     71  CE1 HIS A   3       7.737   5.054  39.044  0.00  0.00    +0.199 A 
ATOM     72  ND1 HIS A   3       8.334   4.102  38.350  0.00  0.00    -0.227 NA
ENDBRANCH  67  68
ENDBRANCH  46  67
ENDBRANCH  42  46
ENDBRANCH  41  43
BRANCH  41  73
ATOM     73  CB  ILE A   4      11.618  -0.026  33.697  0.00  0.00    +0.027 C 
ATOM     74  CG2 ILE A   4      12.363  -1.248  33.125  0.00  0.00    +0.002 C 
BRANCH  73  75
ATOM     75  CG1 ILE A   4      11.749   1.203  32.789  0.00  0.00    +0.002 C 
ATOM     76  CD1 ILE A   4      13.212   1.689  32.621  0.00  0.00    +0.000 C 
ENDBRANCH  73  75
ENDBRANCH  41  73
ENDBRANCH   1  41
TORSDOF 31
REMARK  Name = ../refined-set-2016/2xb8/2xb8_pocket.pdb
REMARK  234 active torsions:
REMARK  status: ('A' for Active; 'I' for Inactive)
REMARK    1  A    between atoms: _1  and  _3
REMARK    2  A    between atoms: _3  and  _4
REMARK    3  A    between atoms: _3  and  _6
REMARK    4  A    between atoms: _6  and  _7
REMARK    5  A    between atoms: _12  and  _14
REMARK    6  A    between atoms: _14  and  _15
REMARK    7  A    between atoms: _18  and  _19
REMARK    8  A    between atoms: _24  and  _26
REMARK    9  A    between atoms: _26  and  _27
REMARK   10  A    between atoms: _26  and  _29
REMARK   11  A    between atoms: _29  and  _30
REMARK   12  A    between atoms: _35  and  _37
REMARK   13  A    between atoms: _37  and  _38
REMARK   14  A    between atoms: _37  and  _40
REMARK   15  A    between atoms: _40  and  _41
REMARK   16  A    between atoms: _44  and  _46
REMARK   17  A    between atoms: _46  and  _47
REMARK   18  A    between atoms: _49  and  _51
REMARK   19  A    between atoms: _51  and  _52
REMARK   20  A    between atoms: _51  and  _54
REMARK   21  A    between atoms: _54  and  _55
REMARK   22  A    between atoms: _55  and  _56
REMARK   23  A    between atoms: _56  and  _57
REMARK   24  A    between atoms: _66  and  _68
REMARK   25  A    between atoms: _68  and  _69
REMARK   26  A    between atoms: _68  and  _71
REMARK   27  A    between atoms: _71  and  _72
REMARK   28  A    between atoms: _75  and  _77
REMARK   29  A    between atoms: _77  and  _78
REMARK   30  A    between atoms: _80  and  _82
REMARK   31  A    between atoms: _82  and  _83
REMARK   32  A    between atoms: _82  and  _85
REMARK   33  A    between atoms: _85  and  _86
REMARK   34  A    between atoms: _86  and  _87
REMARK   35  A    between atoms: _87  and  _88
REMARK   36  A    between atoms: _97  and  _99
REMARK   37  A    between atoms: _99  and  _100
REMARK   38  A    between atoms: _99  and  _102
REMARK   39  A    between atoms: _102  and  _103
REMARK   40  A    between atoms: _103  and  _104
REMARK   41  A    between atoms: _104  and  _105
REMARK   42  A    between atoms: _114  and  _116
REMARK   43  A    between atoms: _116  and  _117
REMARK   44  A    between atoms: _116  and  _119
REMARK   45  A    between atoms: _119  and  _120
REMARK   46  A    between atoms: _120  and  _121
REMARK   47  A    between atoms: _125  and  _126
REMARK   48  A    between atoms: _131  and  _133
REMARK   49  A    between atoms: _133  and  _134
REMARK   50  A    between atoms: _133  and  _136
REMARK   51  A    between atoms: _139  and  _141
REMARK   52  A    between atoms: _141  and  _142
REMARK   53  A    between atoms: _141  and  _144
REMARK   54  A    between atoms: _144  and  _145
REMARK   55  A    between atoms: _150  and  _151
REMARK   56  A    between atoms: _153  and  _155
REMARK   57  A    between atoms: _155  and  _156
REMARK   58  A    between atoms: _158  and  _160
REMARK   59  A    between atoms: _160  and  _161
REMARK   60  A    between atoms: _160  and  _163
REMARK   61  A    between atoms: _163  and  _164
REMARK   62  A    between atoms: _167  and  _169
REMARK   63  A    between atoms: _169  and  _170
REMARK   64  A    between atoms: _169  and  _172
REMARK   65  A    between atoms: _172  and  _173
REMARK   66  A    between atoms: _176  and  _178
REMARK   67  A    between atoms: _178  and  _179
REMARK   68  A    between atoms: _178  and  _181
REMARK   69  A    between atoms: _181  and  _182
REMARK   70  A    between atoms: _187  and  _189
REMARK   71  A    between atoms: _189  and  _190
REMARK   72  A    between atoms: _189  and  _192
REMARK   73  A    between atoms: _192  and  _193
REMARK   74  A    between atoms: _196  and  _198
REMARK   75  A    between atoms: _198  and  _199
REMARK   76  A    between atoms: _198  and  _201
REMARK   77  A    between atoms: _201  and  _202
REMARK   78  A    between atoms: _202  and  _203
REMARK   79  A    between atoms: _208  and  _210
REMARK   80  A    between atoms: _210  and  _211
REMARK   81  A    between atoms: _210  and  _213
REMARK   82  A    between atoms: _213  and  _214
REMARK   83  A    between atoms: _217  and  _219
REMARK   84  A    between atoms: _219  and  _220
REMARK   85  A    between atoms: _219  and  _222
REMARK   86  A    between atoms: _222  and  _223
REMARK   87  A    between atoms: _228  and  _230
REMARK   88  A    between atoms: _230  and  _231
REMARK   89  A    between atoms: _234  and  _236
REMARK   90  A    between atoms: _236  and  _237
REMARK   91  A    between atoms: _239  and  _241
REMARK   92  A    between atoms: _241  and  _242
REMARK   93  A    between atoms: _244  and  _246
REMARK   94  A    between atoms: _246  and  _247
REMARK   95  A    between atoms: _246  and  _249
REMARK   96  A    between atoms: _249  and  _250
REMARK   97  A    between atoms: _253  and  _255
REMARK   98  A    between atoms: _255  and  _256
REMARK   99  A    between atoms: _255  and  _258
REMARK  100  A    between atoms: _258  and  _259
REMARK  101  A    between atoms: _262  and  _264
REMARK  102  A    between atoms: _264  and  _265
REMARK  103  A    between atoms: _264  and  _267
REMARK  104  A    between atoms: _267  and  _268
REMARK  105  A    between atoms: _273  and  _275
REMARK  106  A    between atoms: _275  and  _276
REMARK  107  A    between atoms: _275  and  _278
REMARK  108  A    between atoms: _278  and  _279
REMARK  109  A    between atoms: _282  and  _284
REMARK  110  A    between atoms: _284  and  _285
REMARK  111  A    between atoms: _284  and  _287
REMARK  112  A    between atoms: _287  and  _288
REMARK  113  A    between atoms: _288  and  _289
REMARK  114  A    between atoms: _292  and  _294
REMARK  115  A    between atoms: _294  and  _295
REMARK  116  A    between atoms: _294  and  _297
REMARK  117  A    between atoms: _300  and  _302
REMARK  118  A    between atoms: _302  and  _303
REMARK  119  A    between atoms: _302  and  _305
REMARK  120  A    between atoms: _305  and  _306
REMARK  121  A    between atoms: _311  and  _313
REMARK  122  A    between atoms: _313  and  _314
REMARK  123  A    between atoms: _313  and  _316
REMARK  124  A    between atoms: _316  and  _317
REMARK  125  A    between atoms: _320  and  _322
REMARK  126  A    between atoms: _322  and  _323
REMARK  127  A    between atoms: _322  and  _325
REMARK  128  A    between atoms: _325  and  _326
REMARK  129  A    between atoms: _328  and  _330
REMARK  130  A    between atoms: _330  and  _331
REMARK  131  A    between atoms: _330  and  _333
REMARK  132  A    between atoms: _333  and  _334
REMARK  133  A    between atoms: _339  and  _341
REMARK  134  A    between atoms: _341  and  _342
REMARK  135  A    between atoms: _341  and  _344
REMARK  136  A    between atoms: _347  and  _349
REMARK  137  A    between atoms: _349  and  _350
REMARK  138  A    between atoms: _349  and  _352
REMARK  139  A    between atoms: _352  and  _353
REMARK  140  A    between atoms: _358  and  _360
REMARK  141  A    between atoms: _360  and  _361
REMARK  142  A    between atoms: _360  and  _363
REMARK  143  A    between atoms: _363  and  _364
REMARK  144  A    between atoms: _364  and  _365
REMARK  145  A    between atoms: _365  and  _366
REMARK  146  A    between atoms: _375  and  _377
REMARK  147  A    between atoms: _377  and  _378
REMARK  148  A    between atoms: _377  and  _380
REMARK  149  A    between atoms: _380  and  _381
REMARK  150  A    between atoms: _381  and  _382
REMARK  151  A    between atoms: _385  and  _387
REMARK  152  A    between atoms: _387  and  _388
REMARK  153  A    between atoms: _387  and  _390
REMARK  154  A    between atoms: _390  and  _391
REMARK  155  A    between atoms: _397  and  _399
REMARK  156  A    between atoms: _399  and  _400
REMARK  157  A    between atoms: _399  and  _402
REMARK  158  A    between atoms: _402  and  _403
REMARK  159  A    between atoms: _403  and  _404
REMARK  160  A    between atoms: _404  and  _405
REMARK  161  A    between atoms: _414  and  _416
REMARK  162  A    between atoms: _416  and  _417
REMARK  163  A    between atoms: _416  and  _419
REMARK  164  A    between atoms: _419  and  _420
REMARK  165  A    between atoms: _420  and  _421
REMARK  166  A    between atoms: _421  and  _422
REMARK  167  A    between atoms: _431  and  _433
REMARK  168  A    between atoms: _433  and  _434
REMARK  169  A    between atoms: _433  and  _436
REMARK  170  A    between atoms: _436  and  _437
REMARK  171  A    between atoms: _442  and  _444
REMARK  172  A    between atoms: _444  and  _445
REMARK  173  A    between atoms: _444  and  _447
REMARK  174  A    between atoms: _447  and  _448
REMARK  175  A    between atoms: _450  and  _452
REMARK  176  A    between atoms: _452  and  _453
REMARK  177  A    between atoms: _452  and  _455
REMARK  178  A    between atoms: _455  and  _456
REMARK  179  A    between atoms: _459  and  _461
REMARK  180  A    between atoms: _461  and  _462
REMARK  181  A    between atoms: _461  and  _464
REMARK  182  A    between atoms: _464  and  _465
REMARK  183  A    between atoms: _468  and  _470
REMARK  184  A    between atoms: _470  and  _471
REMARK  185  A    between atoms: _470  and  _473
REMARK  186  A    between atoms: _476  and  _478
REMARK  187  A    between atoms: _478  and  _479
REMARK  188  A    between atoms: _481  and  _483
REMARK  189  A    between atoms: _483  and  _484
REMARK  190  A    between atoms: _483  and  _486
REMARK  191  A    between atoms: _486  and  _487
REMARK  192  A    between atoms: _490  and  _492
REMARK  193  A    between atoms: _492  and  _493
REMARK  194  A    between atoms: _495  and  _497
REMARK  195  A    between atoms: _497  and  _498
REMARK  196  A    between atoms: _497  and  _500
REMARK  197  A    between atoms: _500  and  _501
REMARK  198  A    between atoms: _504  and  _506
REMARK  199  A    between atoms: _506  and  _507
REMARK  200  A    between atoms: _506  and  _509
REMARK  201  A    between atoms: _509  and  _510
REMARK  202  A    between atoms: _515  and  _516
REMARK  203  A    between atoms: _518  and  _520
REMARK  204  A    between atoms: _520  and  _521
REMARK  205  A    between atoms: _520  and  _523
REMARK  206  A    between atoms: _523  and  _524
REMARK  207  A    between atoms: _529  and  _531
REMARK  208  A    between atoms: _531  and  _532
REMARK  209  A    between atoms: _531  and  _534
REMARK  210  A    between atoms: _537  and  _539
REMARK  211  A    between atoms: _539  and  _540
REMARK  212  A    between atoms: _543  and  _545
REMARK  213  A    between atoms: _545  and  _546
REMARK  214  A    between atoms: _545  and  _548
REMARK  215  A    between atoms: _548  and  _549
REMARK  216  A    between atoms: _552  and  _554
REMARK  217  A    between atoms: _554  and  _555
REMARK  218  A    between atoms: _554  and  _557
REMARK  219  A    between atoms: _557  and  _558
REMARK  220  A    between atoms: _558  and  _559
REMARK  221  A    between atoms: _559  and  _560
REMARK  222  A    between atoms: _569  and  _571
REMARK  223  A    between atoms: _571  and  _572
REMARK  224  A    between atoms: _571  and  _574
REMARK  225  A    between atoms: _574  and  _575
REMARK  226  A    between atoms: _578  and  _580
REMARK  227  A    between atoms: _580  and  _581
REMARK  228  A    between atoms: _584  and  _586
REMARK  229  A    between atoms: _586  and  _587
REMARK  230  A    between atoms: _590  and  _592
REMARK  231  A    between atoms: _592  and  _593
REMARK  232  A    between atoms: _592  and  _595
REMARK  233  A    between atoms: _595  and  _596
REMARK  234  A    between atoms: _596  and  _597
REMARK                            x       y       z     vdW  Elec       q    Type
REMARK                         _______ _______ _______ _____ _____    ______ ____
ROOT
ATOM      1  CA  ARG A   1       9.815  -5.489  45.154  0.00  0.00    +0.145 C 
ENDROOT
BRANCH   1   2
ATOM      2  C   ARG A   1       9.611  -5.043  46.609  0.00  0.00    +0.238 C 
ATOM      3  O   ARG A   1       8.608  -5.423  47.226  0.00  0.00    -0.274 OA
ATOM      4  N   GLU A   2      10.543  -4.272  47.176  0.00  0.00    -0.298 N 
ATOM      5  H   GLU A   2      11.355  -3.944  46.616  0.00  0.00    +0.150 HD
BRANCH   4   6
ATOM      6  CA  GLU A   2      10.424  -3.887  48.587  0.00  0.00    +0.137 C 
BRANCH   6   7
ATOM      7  C   GLU A   2       9.164  -3.075  48.789  0.00  0.00    +0.227 C 
ATOM      8  O   GLU A   2       8.733  -2.327  47.905  0.00  0.00    -0.286 OA
ENDBRANCH   6   7
BRANCH   6   9
ATOM      9  CB  GLU A   2      11.621  -3.088  49.079  0.00  0.00    +0.039 C 
BRANCH   9  10
ATOM     10  CG  GLU A   2      12.961  -3.784  48.865  0.00  0.00    +0.116 C 
BRANCH  10  11
ATOM     11  CD  GLU A   2      13.596  -3.475  47.506  0.00  0.00    +0.365 C 
ATOM     12  OE2 GLU A   2      14.812  -3.705  47.354  0.00  0.00    -0.246 OA
ATOM     13  OE1 GLU A   2      12.889  -2.989  46.596  0.00  0.00    -0.246 OA
ENDBRANCH  10  11
ENDBRANCH   9  10
ENDBRANCH   6   9
ENDBRANCH   4   6
ENDBRANCH   1   2
BRANCH   1  14
ATOM     14  N   ARG A   1       8.523  -5.860  44.572  0.00  0.00    -0.238 NA
ATOM     15  H   ARG A   1       7.787  -5.131  44.480  0.00  0.00    +0.142 HD
ENDBRANCH   1  14
BRANCH   1  16
ATOM     16  CB  ARG A   1      10.479  -4.432  44.285  0.00  0.00    +0.030 C 
BRANCH  16  17
ATOM     17  CG  ARG A   1      10.771  -4.959  42.868  0.00  0.00    +0.045 C 
BRANCH  17  18
ATOM     18  CD  ARG A   1      11.404  -3.905  41.989  0.00  0.00    +0.174 C 
BRANCH  18  19
ATOM     19  NE  ARG A   1      12.728  -3.557  42.463  0.00  0.00    -0.265 N 
ATOM     20  HE  ARG A   1      13.090  -4.065  43.295  0.00  0.00    +0.259 HD
ATOM     21  CZ  ARG A   1      13.514  -2.637  41.914  0.00  0.00    +0.342 C 
ATOM     22  NH2 ARG A   1      14.729  -2.407  42.421  0.00  0.00    -0.292 N 
ATOM     23 HH21 ARG A   1      15.059  -2.948  43.245  0.00  0.00    +0.255 HD
ATOM     24 HH22 ARG A   1      15.344  -1.687  41.991  0.00  0.00    +0.255 HD
ATOM     25  NH1 ARG A   1      13.092  -1.944  40.880  0.00  0.00    -0.292 N 
ATOM     26 HH11 ARG A   1      12.143  -2.116  40.491  0.00  0.00    +0.255 HD
ATOM     27 HH12 ARG A   1      13.707  -1.224  40.450  0.00  0.00    +0.255 HD
ENDBRANCH  18  19
ENDBRANCH  17  18
ENDBRANCH  16  17
ENDBRANCH   1  16
TORSDOF 11
REMARK  Name = ../refined-set-2016/2xb8/2xb8_pocket.pdb
REMARK  234 active torsions:
REMARK  status: ('A' for Active; 'I' for Inactive)
REMARK    1  A    between atoms: _1  and  _3
REMARK    2  A    between atoms: _3  and  _4
REMARK    3  A    between atoms: _3  and  _6
REMARK    4  A    between atoms: _6  and  _7
REMARK    5  A    between atoms: _12  and  _14
REMARK    6  A    between atoms: _14  and  _15
REMARK    7  A    between atoms: _18  and  _19
REMARK    8  A    between atoms: _24  and  _26
REMARK    9  A    between atoms: _26  and  _27
REMARK   10  A    between atoms: _26  and  _29
REMARK   11  A    between atoms: _29  and  _30
REMARK   12  A    between atoms: _35  and  _37
REMARK   13  A    between atoms: _37  and  _38
REMARK   14  A    between atoms: _37  and  _40
REMARK   15  A    between atoms: _40  and  _41
REMARK   16  A    between atoms: _44  and  _46
REMARK   17  A    between atoms: _46  and  _47
REMARK   18  A    between atoms: _49  and  _51
REMARK   19  A    between atoms: _51  and  _52
REMARK   20  A    between atoms: _51  and  _54
REMARK   21  A    between atoms: _54  and  _55
REMARK   22  A    between atoms: _55  and  _56
REMARK   23  A    between atoms: _56  and  _57
REMARK   24  A    between atoms: _66  and  _68
REMARK   25  A    between atoms: _68  and  _69
REMARK   26  A    between atoms: _68  and  _71
REMARK   27  A    between atoms: _71  and  _72
REMARK   28  A    between atoms: _75  and  _77
REMARK   29  A    between atoms: _77  and  _78
REMARK   30  A    between atoms: _80  and  _82
REMARK   31  A    between atoms: _82  and  _83
REMARK   32  A    between atoms: _82  and  _85
REMARK   33  A    between atoms: _85  and  _86
REMARK   34  A    between atoms: _86  and  _87
REMARK   35  A    between atoms: _87  and  _88
REMARK   36  A    between atoms: _97  and  _99
REMARK   37  A    between atoms: _99  and  _100
REMARK   38  A    between atoms: _99  and  _102
REMARK   39  A    between atoms: _102  and  _103
REMARK   40  A    between atoms: _103  and  _104
REMARK   41  A    between atoms: _104  and  _105
REMARK   42  A    between atoms: _114  and  _116
REMARK   43  A    between atoms: _116  and  _117
REMARK   44  A    between atoms: _116  and  _119
REMARK   45  A    between atoms: _119  and  _120
REMARK   46  A    between atoms: _120  and  _121
REMARK   47  A    between atoms: _125  and  _126
REMARK   48  A    between atoms: _131  and  _133
REMARK   49  A    between atoms: _133  and  _134
REMARK   50  A    between atoms: _133  and  _136
REMARK   51  A    between atoms: _139  and  _141
REMARK   52  A    between atoms: _141  and  _142
REMARK   53  A    between atoms: _141  and  _144
REMARK   54  A    between atoms: _144  and  _145
REMARK   55  A    between atoms: _150  and  _151
REMARK   56  A    between atoms: _153  and  _155
REMARK   57  A    between atoms: _155  and  _156
REMARK   58  A    between atoms: _158  and  _160
REMARK   59  A    between atoms: _160  and  _161
REMARK   60  A    between atoms: _160  and  _163
REMARK   61  A    between atoms: _163  and  _164
REMARK   62  A    between atoms: _167  and  _169
REMARK   63  A    between atoms: _169  and  _170
REMARK   64  A    between atoms: _169  and  _172
REMARK   65  A    between atoms: _172  and  _173
REMARK   66  A    between atoms: _176  and  _178
REMARK   67  A    between atoms: _178  and  _179
REMARK   68  A    between atoms: _178  and  _181
REMARK   69  A    between atoms: _181  and  _182
REMARK   70  A    between atoms: _187  and  _189
REMARK   71  A    between atoms: _189  and  _190
REMARK   72  A    between atoms: _189  and  _192
REMARK   73  A    between atoms: _192  and  _193
REMARK   74  A    between atoms: _196  and  _198
REMARK   75  A    between atoms: _198  and  _199
REMARK   76  A    between atoms: _198  and  _201
REMARK   77  A    between atoms: _201  and  _202
REMARK   78  A    between atoms: _202  and  _203
REMARK   79  A    between atoms: _208  and  _210
REMARK   80  A    between atoms: _210  and  _211
REMARK   81  A    between atoms: _210  and  _213
REMARK   82  A    between atoms: _213  and  _214
REMARK   83  A    between atoms: _217  and  _219
REMARK   84  A    between atoms: _219  and  _220
REMARK   85  A    between atoms: _219  and  _222
REMARK   86  A    between atoms: _222  and  _223
REMARK   87  A    between atoms: _228  and  _230
REMARK   88  A    between atoms: _230  and  _231
REMARK   89  A    between atoms: _234  and  _236
REMARK   90  A    between atoms: _236  and  _237
REMARK   91  A    between atoms: _239  and  _241
REMARK   92  A    between atoms: _241  and  _242
REMARK   93  A    between atoms: _244  and  _246
REMARK   94  A    between atoms: _246  and  _247
REMARK   95  A    between atoms: _246  and  _249
REMARK   96  A    between atoms: _249  and  _250
REMARK   97  A    between atoms: _253  and  _255
REMARK   98  A    between atoms: _255  and  _256
REMARK   99  A    between atoms: _255  and  _258
REMARK  100  A    between atoms: _258  and  _259
REMARK  101  A    between atoms: _262  and  _264
REMARK  102  A    between atoms: _264  and  _265
REMARK  103  A    between atoms: _264  and  _267
REMARK  104  A    between atoms: _267  and  _268
REMARK  105  A    between atoms: _273  and  _275
REMARK  106  A    between atoms: _275  and  _276
REMARK  107  A    between atoms: _275  and  _278
REMARK  108  A    between atoms: _278  and  _279
REMARK  109  A    between atoms: _282  and  _284
REMARK  110  A    between atoms: _284  and  _285
REMARK  111  A    between atoms: _284  and  _287
REMARK  112  A    between atoms: _287  and  _288
REMARK  113  A    between atoms: _288  and  _289
REMARK  114  A    between atoms: _292  and  _294
REMARK  115  A    between atoms: _294  and  _295
REMARK  116  A    between atoms: _294  and  _297
REMARK  117  A    between atoms: _300  and  _302
REMARK  118  A    between atoms: _302  and  _303
REMARK  119  A    between atoms: _302  and  _305
REMARK  120  A    between atoms: _305  and  _306
REMARK  121  A    between atoms: _311  and  _313
REMARK  122  A    between atoms: _313  and  _314
REMARK  123  A    between atoms: _313  and  _316
REMARK  124  A    between atoms: _316  and  _317
REMARK  125  A    between atoms: _320  and  _322
REMARK  126  A    between atoms: _322  and  _323
REMARK  127  A    between atoms: _322  and  _325
REMARK  128  A    between atoms: _325  and  _326
REMARK  129  A    between atoms: _328  and  _330
REMARK  130  A    between atoms: _330  and  _331
REMARK  131  A    between atoms: _330  and  _333
REMARK  132  A    between atoms: _333  and  _334
REMARK  133  A    between atoms: _339  and  _341
REMARK  134  A    between atoms: _341  and  _342
REMARK  135  A    between atoms: _341  and  _344
REMARK  136  A    between atoms: _347  and  _349
REMARK  137  A    between atoms: _349  and  _350
REMARK  138  A    between atoms: _349  and  _352
REMARK  139  A    between atoms: _352  and  _353
REMARK  140  A    between atoms: _358  and  _360
REMARK  141  A    between atoms: _360  and  _361
REMARK  142  A    between atoms: _360  and  _363
REMARK  143  A    between atoms: _363  and  _364
REMARK  144  A    between atoms: _364  and  _365
REMARK  145  A    between atoms: _365  and  _366
REMARK  146  A    between atoms: _375  and  _377
REMARK  147  A    between atoms: _377  and  _378
REMARK  148  A    between atoms: _377  and  _380
REMARK  149  A    between atoms: _380  and  _381
REMARK  150  A    between atoms: _381  and  _382
REMARK  151  A    between atoms: _385  and  _387
REMARK  152  A    between atoms: _387  and  _388
REMARK  153  A    between atoms: _387  and  _390
REMARK  154  A    between atoms: _390  and  _391
REMARK  155  A    between atoms: _397  and  _399
REMARK  156  A    between atoms: _399  and  _400
REMARK  157  A    between atoms: _399  and  _402
REMARK  158  A    between atoms: _402  and  _403
REMARK  159  A    between atoms: _403  and  _404
REMARK  160  A    between atoms: _404  and  _405
REMARK  161  A    between atoms: _414  and  _416
REMARK  162  A    between atoms: _416  and  _417
REMARK  163  A    between atoms: _416  and  _419
REMARK  164  A    between atoms: _419  and  _420
REMARK  165  A    between atoms: _420  and  _421
REMARK  166  A    between atoms: _421  and  _422
REMARK  167  A    between atoms: _431  and  _433
REMARK  168  A    between atoms: _433  and  _434
REMARK  169  A    between atoms: _433  and  _436
REMARK  170  A    between atoms: _436  and  _437
REMARK  171  A    between atoms: _442  and  _444
REMARK  172  A    between atoms: _444  and  _445
REMARK  173  A    between atoms: _444  and  _447
REMARK  174  A    between atoms: _447  and  _448
REMARK  175  A    between atoms: _450  and  _452
REMARK  176  A    between atoms: _452  and  _453
REMARK  177  A    between atoms: _452  and  _455
REMARK  178  A    between atoms: _455  and  _456
REMARK  179  A    between atoms: _459  and  _461
REMARK  180  A    between atoms: _461  and  _462
REMARK  181  A    between atoms: _461  and  _464
REMARK  182  A    between atoms: _464  and  _465
REMARK  183  A    between atoms: _468  and  _470
REMARK  184  A    between atoms: _470  and  _471
REMARK  185  A    between atoms: _470  and  _473
REMARK  186  A    between atoms: _476  and  _478
REMARK  187  A    between atoms: _478  and  _479
REMARK  188  A    between atoms: _481  and  _483
REMARK  189  A    between atoms: _483  and  _484
REMARK  190  A    between atoms: _483  and  _486
REMARK  191  A    between atoms: _486  and  _487
REMARK  192  A    between atoms: _490  and  _492
REMARK  193  A    between atoms: _492  and  _493
REMARK  194  A    between atoms: _495  and  _497
REMARK  195  A    between atoms: _497  and  _498
REMARK  196  A    between atoms: _497  and  _500
REMARK  197  A    between atoms: _500  and  _501
REMARK  198  A    between atoms: _504  and  _506
REMARK  199  A    between atoms: _506  and  _507
REMARK  200  A    between atoms: _506  and  _509
REMARK  201  A    between atoms: _509  and  _510
REMARK  202  A    between atoms: _515  and  _516
REMARK  203  A    between atoms: _518  and  _520
REMARK  204  A    between atoms: _520  and  _521
REMARK  205  A    between atoms: _520  and  _523
REMARK  206  A    between atoms: _523  and  _524
REMARK  207  A    between atoms: _529  and  _531
REMARK  208  A    between atoms: _531  and  _532
REMARK  209  A    between atoms: _531  and  _534
REMARK  210  A    between atoms: _537  and  _539
REMARK  211  A    between atoms: _539  and  _540
REMARK  212  A    between atoms: _543  and  _545
REMARK  213  A    between atoms: _545  and  _546
REMARK  214  A    between atoms: _545  and  _548
REMARK  215  A    between atoms: _548  and  _549
REMARK  216  A    between atoms: _552  and  _554
REMARK  217  A    between atoms: _554  and  _555
REMARK  218  A    between atoms: _554  and  _557
REMARK  219  A    between atoms: _557  and  _558
REMARK  220  A    between atoms: _558  and  _559
REMARK  221  A    between atoms: _559  and  _560
REMARK  222  A    between atoms: _569  and  _571
REMARK  223  A    between atoms: _571  and  _572
REMARK  224  A    between atoms: _571  and  _574
REMARK  225  A    between atoms: _574  and  _575
REMARK  226  A    between atoms: _578  and  _580
REMARK  227  A    between atoms: _580  and  _581
REMARK  228  A    between atoms: _584  and  _586
REMARK  229  A    between atoms: _586  and  _587
REMARK  230  A    between atoms: _590  and  _592
REMARK  231  A    between atoms: _592  and  _593
REMARK  232  A    between atoms: _592  and  _595
REMARK  233  A    between atoms: _595  and  _596
REMARK  234  A    between atoms: _596  and  _597
REMARK                            x       y       z     vdW  Elec       q    Type
REMARK                         _______ _______ _______ _____ _____    ______ ____
ROOT
ATOM      1  CA  ARG A   3       4.679  -0.064  46.537  0.00  0.00    +0.149 C 
ENDROOT
BRANCH   1   2
ATOM      2  C   ARG A   3       3.820   1.142  46.911  0.00  0.00    +0.241 C 
ATOM      3  N   HIS A   4       4.454   2.229  47.343  0.00  0.00    -0.297 N 
ATOM      4  H   HIS A   4       5.477   2.174  47.521  0.00  0.00    +0.150 HD
ATOM      5  O   ARG A   3       2.600   1.073  46.853  0.00  0.00    -0.273 OA
BRANCH   3   6
ATOM      6  CA  HIS A   4       3.769   3.496  47.577  0.00  0.00    +0.155 C 
BRANCH   6   7
ATOM      7  C   HIS A   4       4.359   4.580  46.667  0.00  0.00    +0.241 C 
ATOM      8  O   HIS A   4       5.575   4.710  46.520  0.00  0.00    -0.273 OA
ATOM      9  N   SER A   5       3.475   5.326  46.026  0.00  0.00    -0.296 N 
ATOM     10  H   SER A   5       2.465   5.165  46.217  0.00  0.00    +0.150 HD
BRANCH   9  11
ATOM     11  CA  SER A   5       3.838   6.363  45.065  0.00  0.00    +0.166 C 
BRANCH  11  12
ATOM     12  CB  SER A   5       3.118   7.634  45.477  0.00  0.00    +0.229 C 
ATOM     13  OG  SER A   5       1.946   7.571  45.703  0.00  0.00    -0.286 OA
ENDBRANCH  11  12
BRANCH  11  14
ATOM     14  C   SER A   5       3.362   5.940  43.674  0.00  0.00    +0.165 C 
BRANCH  14  15
ATOM     15  O   SER A   5       3.470   6.986  42.728  0.00  0.00    -0.380 OA
ATOM     16  H   SER A   5       3.152   6.666  41.847  0.00  0.00    +0.211 HD
ENDBRANCH  14  15
ENDBRANCH  11  14
ENDBRANCH   9  11
ENDBRANCH   6   7
BRANCH   6  17
ATOM     17  CB  HIS A   4       3.854   3.846  49.054  0.00  0.00    +0.076 C 
BRANCH  17  18
ATOM     18  CG  HIS A   4       3.528   2.682  49.927  0.00  0.00    +0.082 A 
ATOM     19  CD2 HIS A   4       4.330   1.776  50.544  0.00  0.00    +0.115 A 
ATOM     20  NE2 HIS A   4       3.510   0.852  51.145  0.00  0.00    -0.221 NA
ATOM     21  CE1 HIS A   4       2.248   1.175  50.904  0.00  0.00    +0.199 A 
ATOM     22  ND1 HIS A   4       2.228   2.276  50.169  0.00  0.00    -0.227 NA
ENDBRANCH  17  18
ENDBRANCH   6  17
ENDBRANCH   3   6
ENDBRANCH   1   2
BRANCH   1  24
ATOM     23  C   ARG A   2       6.929   0.655  45.869  0.00  0.00    +0.241 C 
ATOM     24  N   ARG A   3       6.112   0.143  46.794  0.00  0.00    -0.297 N 
ATOM     25  H   ARG A   3       6.501  -0.117  47.723  0.00  0.00    +0.150 HD
ATOM     26  O   ARG A   2       6.540   1.035  44.760  0.00  0.00    -0.273 OA
BRANCH  23  27
ATOM     27  CA  ARG A   2       8.411   0.783  46.233  0.00  0.00    +0.149 C 
BRANCH  27  30
ATOM     28  C   PHE A   1       8.453   1.467  48.580  0.00  0.00    +0.239 C 
ATOM     29  O   PHE A   1       8.069   2.599  48.293  0.00  0.00    -0.274 OA
ATOM     30  N   ARG A   2       8.688   0.535  47.660  0.00  0.00    -0.297 N 
ATOM     31  H   ARG A   2       9.074  -0.385  47.953  0.00  0.00    +0.150 HD
BRANCH  28  32
ATOM     32  CA  PHE A   1       8.666   1.087  50.047  0.00  0.00    +0.149 C 
BRANCH  32  33
ATOM     33  N   PHE A   1       8.597  -0.377  50.297  0.00  0.00    -0.238 NA
ATOM     34  H   PHE A   1       9.443  -0.897  50.606  0.00  0.00    +0.142 HD
ENDBRANCH  32  33
BRANCH  32  35
ATOM     35  CB  PHE A   1       9.957   1.755  50.581  0.00  0.00    +0.053 C 
BRANCH  35  36
ATOM     36  CG  PHE A   1      11.239   1.239  49.972  0.00  0.00    -0.020 A 
ATOM     37  CD2 PHE A   1      12.039   0.346  50.679  0.00  0.00    -0.004 A 
ATOM     38  CE2 PHE A   1      13.213  -0.127  50.152  0.00  0.00    -0.000 A 
ATOM     39  CZ  PHE A   1      13.628   0.297  48.893  0.00  0.00    -0.000 A 
ATOM     40  CE1 PHE A   1      12.839   1.227  48.174  0.00  0.00    -0.000 A 
ATOM     41  CD1 PHE A   1      11.674   1.696  48.722  0.00  0.00    -0.004 A 
ENDBRANCH  35  36
ENDBRANCH  32  35
ENDBRANCH  28  32
ENDBRANCH  27  30
BRANCH  27  42
ATOM     42  CB  ARG A   2       9.237  -0.157  45.354  0.00  0.00    +0.033 C 
BRANCH  42  43
ATOM     43  CG  ARG A   2      10.735  -0.001  45.606  0.00  0.00    +0.045 C 
BRANCH  43  44
ATOM     44  CD  ARG A   2      11.545  -0.789  44.616  0.00  0.00    +0.174 C 
BRANCH  44  45
ATOM     45  NE  ARG A   2      12.935  -0.791  45.038  0.00  0.00    -0.265 N 
ATOM     46  HE  ARG A   2      13.279  -1.609  45.580  0.00  0.00    +0.259 HD
ATOM     47  CZ  ARG A   2      13.792   0.187  44.774  0.00  0.00    +0.342 C 
ATOM     48  NH2 ARG A   2      15.027   0.091  45.212  0.00  0.00    -0.292 N 
ATOM     49 HH21 ARG A   2      15.322  -0.744  45.758  0.00  0.00    +0.255 HD
ATOM     50 HH22 ARG A   2      15.710   0.850  45.013  0.00  0.00    +0.255 HD
ATOM     51  NH1 ARG A   2      13.414   1.274  44.093  0.00  0.00    -0.292 N 
ATOM     52 HH11 ARG A   2      14.101   2.029  43.896  0.00  0.00    +0.255 HD
ATOM     53 HH12 ARG A   2      12.433   1.364  43.760  0.00  0.00    +0.255 HD
ENDBRANCH  44  45
ENDBRANCH  43  44
ENDBRANCH  42  43
ENDBRANCH  27  42
ENDBRANCH  23  27
ENDBRANCH   1  24
BRANCH   1  54
ATOM     54  CB  ARG A   3       4.173  -1.327  47.272  0.00  0.00    +0.033 C 
BRANCH  54  55
ATOM     55  CG  ARG A   3       5.021  -2.561  46.950  0.00  0.00    +0.045 C 
BRANCH  55  56
ATOM     56  CD  ARG A   3       4.529  -3.827  47.605  0.00  0.00    +0.174 C 
BRANCH  56  57
ATOM     57  NE  ARG A   3       5.486  -4.917  47.416  0.00  0.00    -0.265 N 
ATOM     58  CZ  ARG A   3       5.234  -6.223  47.560  0.00  0.00    +0.342 C 
ATOM     59  NH2 ARG A   3       4.021  -6.685  47.912  0.00  0.00    -0.292 N 
ATOM     60 HH21 ARG A   3       3.240  -6.019  48.082  0.00  0.00    +0.255 HD
ATOM     61 HH22 ARG A   3       3.864  -7.708  48.014  0.00  0.00    +0.255 HD
ATOM     62  NH1 ARG A   3       6.218  -7.079  47.339  0.00  0.00    -0.292 N 
ATOM     63 HH11 ARG A   3       6.052  -8.100  47.443  0.00  0.00    +0.255 HD
ATOM     64 HH12 ARG A   3       7.158  -6.731  47.061  0.00  0.00    +0.255 HD
ATOM     65  HE  ARG A   3       6.454  -4.652  47.144  0.00  0.00    +0.259 HD
ENDBRANCH  56  57
ENDBRANCH  55  56
ENDBRANCH  54  55
ENDBRANCH   1  54
TORSDOF 24
REMARK  Name = ../refined-set-2016/2xb8/2xb8_pocket.pdb
REMARK  234 active torsions:
REMARK  status: ('A' for Active; 'I' for Inactive)
REMARK    1  A    between atoms: _1  and  _3
REMARK    2  A    between atoms: _3  and  _4
REMARK    3  A    between atoms: _3  and  _6
REMARK    4  A    between atoms: _6  and  _7
REMARK    5  A    between atoms: _12  and  _14
REMARK    6  A    between atoms: _14  and  _15
REMARK    7  A    between atoms: _18  and  _19
REMARK    8  A    between atoms: _24  and  _26
REMARK    9  A    between atoms: _26  and  _27
REMARK   10  A    between atoms: _26  and  _29
REMARK   11  A    between atoms: _29  and  _30
REMARK   12  A    between atoms: _35  and  _37
REMARK   13  A    between atoms: _37  and  _38
REMARK   14  A    between atoms: _37  and  _40
REMARK   15  A    between atoms: _40  and  _41
REMARK   16  A    between atoms: _44  and  _46
REMARK   17  A    between atoms: _46  and  _47
REMARK   18  A    between atoms: _49  and  _51
REMARK   19  A    between atoms: _51  and  _52
REMARK   20  A    between atoms: _51  and  _54
REMARK   21  A    between atoms: _54  and  _55
REMARK   22  A    between atoms: _55  and  _56
REMARK   23  A    between atoms: _56  and  _57
REMARK   24  A    between atoms: _66  and  _68
REMARK   25  A    between atoms: _68  and  _69
REMARK   26  A    between atoms: _68  and  _71
REMARK   27  A    between atoms: _71  and  _72
REMARK   28  A    between atoms: _75  and  _77
REMARK   29  A    between atoms: _77  and  _78
REMARK   30  A    between atoms: _80  and  _82
REMARK   31  A    between atoms: _82  and  _83
REMARK   32  A    between atoms: _82  and  _85
REMARK   33  A    between atoms: _85  and  _86
REMARK   34  A    between atoms: _86  and  _87
REMARK   35  A    between atoms: _87  and  _88
REMARK   36  A    between atoms: _97  and  _99
REMARK   37  A    between atoms: _99  and  _100
REMARK   38  A    between atoms: _99  and  _102
REMARK   39  A    between atoms: _102  and  _103
REMARK   40  A    between atoms: _103  and  _104
REMARK   41  A    between atoms: _104  and  _105
REMARK   42  A    between atoms: _114  and  _116
REMARK   43  A    between atoms: _116  and  _117
REMARK   44  A    between atoms: _116  and  _119
REMARK   45  A    between atoms: _119  and  _120
REMARK   46  A    between atoms: _120  and  _121
REMARK   47  A    between atoms: _125  and  _126
REMARK   48  A    between atoms: _131  and  _133
REMARK   49  A    between atoms: _133  and  _134
REMARK   50  A    between atoms: _133  and  _136
REMARK   51  A    between atoms: _139  and  _141
REMARK   52  A    between atoms: _141  and  _142
REMARK   53  A    between atoms: _141  and  _144
REMARK   54  A    between atoms: _144  and  _145
REMARK   55  A    between atoms: _150  and  _151
REMARK   56  A    between atoms: _153  and  _155
REMARK   57  A    between atoms: _155  and  _156
REMARK   58  A    between atoms: _158  and  _160
REMARK   59  A    between atoms: _160  and  _161
REMARK   60  A    between atoms: _160  and  _163
REMARK   61  A    between atoms: _163  and  _164
REMARK   62  A    between atoms: _167  and  _169
REMARK   63  A    between atoms: _169  and  _170
REMARK   64  A    between atoms: _169  and  _172
REMARK   65  A    between atoms: _172  and  _173
REMARK   66  A    between atoms: _176  and  _178
REMARK   67  A    between atoms: _178  and  _179
REMARK   68  A    between atoms: _178  and  _181
REMARK   69  A    between atoms: _181  and  _182
REMARK   70  A    between atoms: _187  and  _189
REMARK   71  A    between atoms: _189  and  _190
REMARK   72  A    between atoms: _189  and  _192
REMARK   73  A    between atoms: _192  and  _193
REMARK   74  A    between atoms: _196  and  _198
REMARK   75  A    between atoms: _198  and  _199
REMARK   76  A    between atoms: _198  and  _201
REMARK   77  A    between atoms: _201  and  _202
REMARK   78  A    between atoms: _202  and  _203
REMARK   79  A    between atoms: _208  and  _210
REMARK   80  A    between atoms: _210  and  _211
REMARK   81  A    between atoms: _210  and  _213
REMARK   82  A    between atoms: _213  and  _214
REMARK   83  A    between atoms: _217  and  _219
REMARK   84  A    between atoms: _219  and  _220
REMARK   85  A    between atoms: _219  and  _222
REMARK   86  A    between atoms: _222  and  _223
REMARK   87  A    between atoms: _228  and  _230
REMARK   88  A    between atoms: _230  and  _231
REMARK   89  A    between atoms: _234  and  _236
REMARK   90  A    between atoms: _236  and  _237
REMARK   91  A    between atoms: _239  and  _241
REMARK   92  A    between atoms: _241  and  _242
REMARK   93  A    between atoms: _244  and  _246
REMARK   94  A    between atoms: _246  and  _247
REMARK   95  A    between atoms: _246  and  _249
REMARK   96  A    between atoms: _249  and  _250
REMARK   97  A    between atoms: _253  and  _255
REMARK   98  A    between atoms: _255  and  _256
REMARK   99  A    between atoms: _255  and  _258
REMARK  100  A    between atoms: _258  and  _259
REMARK  101  A    between atoms: _262  and  _264
REMARK  102  A    between atoms: _264  and  _265
REMARK  103  A    between atoms: _264  and  _267
REMARK  104  A    between atoms: _267  and  _268
REMARK  105  A    between atoms: _273  and  _275
REMARK  106  A    between atoms: _275  and  _276
REMARK  107  A    between atoms: _275  and  _278
REMARK  108  A    between atoms: _278  and  _279
REMARK  109  A    between atoms: _282  and  _284
REMARK  110  A    between atoms: _284  and  _285
REMARK  111  A    between atoms: _284  and  _287
REMARK  112  A    between atoms: _287  and  _288
REMARK  113  A    between atoms: _288  and  _289
REMARK  114  A    between atoms: _292  and  _294
REMARK  115  A    between atoms: _294  and  _295
REMARK  116  A    between atoms: _294  and  _297
REMARK  117  A    between atoms: _300  and  _302
REMARK  118  A    between atoms: _302  and  _303
REMARK  119  A    between atoms: _302  and  _305
REMARK  120  A    between atoms: _305  and  _306
REMARK  121  A    between atoms: _311  and  _313
REMARK  122  A    between atoms: _313  and  _314
REMARK  123  A    between atoms: _313  and  _316
REMARK  124  A    between atoms: _316  and  _317
REMARK  125  A    between atoms: _320  and  _322
REMARK  126  A    between atoms: _322  and  _323
REMARK  127  A    between atoms: _322  and  _325
REMARK  128  A    between atoms: _325  and  _326
REMARK  129  A    between atoms: _328  and  _330
REMARK  130  A    between atoms: _330  and  _331
REMARK  131  A    between atoms: _330  and  _333
REMARK  132  A    between atoms: _333  and  _334
REMARK  133  A    between atoms: _339  and  _341
REMARK  134  A    between atoms: _341  and  _342
REMARK  135  A    between atoms: _341  and  _344
REMARK  136  A    between atoms: _347  and  _349
REMARK  137  A    between atoms: _349  and  _350
REMARK  138  A    between atoms: _349  and  _352
REMARK  139  A    between atoms: _352  and  _353
REMARK  140  A    between atoms: _358  and  _360
REMARK  141  A    between atoms: _360  and  _361
REMARK  142  A    between atoms: _360  and  _363
REMARK  143  A    between atoms: _363  and  _364
REMARK  144  A    between atoms: _364  and  _365
REMARK  145  A    between atoms: _365  and  _366
REMARK  146  A    between atoms: _375  and  _377
REMARK  147  A    between atoms: _377  and  _378
REMARK  148  A    between atoms: _377  and  _380
REMARK  149  A    between atoms: _380  and  _381
REMARK  150  A    between atoms: _381  and  _382
REMARK  151  A    between atoms: _385  and  _387
REMARK  152  A    between atoms: _387  and  _388
REMARK  153  A    between atoms: _387  and  _390
REMARK  154  A    between atoms: _390  and  _391
REMARK  155  A    between atoms: _397  and  _399
REMARK  156  A    between atoms: _399  and  _400
REMARK  157  A    between atoms: _399  and  _402
REMARK  158  A    between atoms: _402  and  _403
REMARK  159  A    between atoms: _403  and  _404
REMARK  160  A    between atoms: _404  and  _405
REMARK  161  A    between atoms: _414  and  _416
REMARK  162  A    between atoms: _416  and  _417
REMARK  163  A    between atoms: _416  and  _419
REMARK  164  A    between atoms: _419  and  _420
REMARK  165  A    between atoms: _420  and  _421
REMARK  166  A    between atoms: _421  and  _422
REMARK  167  A    between atoms: _431  and  _433
REMARK  168  A    between atoms: _433  and  _434
REMARK  169  A    between atoms: _433  and  _436
REMARK  170  A    between atoms: _436  and  _437
REMARK  171  A    between atoms: _442  and  _444
REMARK  172  A    between atoms: _444  and  _445
REMARK  173  A    between atoms: _444  and  _447
REMARK  174  A    between atoms: _447  and  _448
REMARK  175  A    between atoms: _450  and  _452
REMARK  176  A    between atoms: _452  and  _453
REMARK  177  A    between atoms: _452  and  _455
REMARK  178  A    between atoms: _455  and  _456
REMARK  179  A    between atoms: _459  and  _461
REMARK  180  A    between atoms: _461  and  _462
REMARK  181  A    between atoms: _461  and  _464
REMARK  182  A    between atoms: _464  and  _465
REMARK  183  A    between atoms: _468  and  _470
REMARK  184  A    between atoms: _470  and  _471
REMARK  185  A    between atoms: _470  and  _473
REMARK  186  A    between atoms: _476  and  _478
REMARK  187  A    between atoms: _478  and  _479
REMARK  188  A    between atoms: _481  and  _483
REMARK  189  A    between atoms: _483  and  _484
REMARK  190  A    between atoms: _483  and  _486
REMARK  191  A    between atoms: _486  and  _487
REMARK  192  A    between atoms: _490  and  _492
REMARK  193  A    between atoms: _492  and  _493
REMARK  194  A    between atoms: _495  and  _497
REMARK  195  A    between atoms: _497  and  _498
REMARK  196  A    between atoms: _497  and  _500
REMARK  197  A    between atoms: _500  and  _501
REMARK  198  A    between atoms: _504  and  _506
REMARK  199  A    between atoms: _506  and  _507
REMARK  200  A    between atoms: _506  and  _509
REMARK  201  A    between atoms: _509  and  _510
REMARK  202  A    between atoms: _515  and  _516
REMARK  203  A    between atoms: _518  and  _520
REMARK  204  A    between atoms: _520  and  _521
REMARK  205  A    between atoms: _520  and  _523
REMARK  206  A    between atoms: _523  and  _524
REMARK  207  A    between atoms: _529  and  _531
REMARK  208  A    between atoms: _531  and  _532
REMARK  209  A    between atoms: _531  and  _534
REMARK  210  A    between atoms: _537  and  _539
REMARK  211  A    between atoms: _539  and  _540
REMARK  212  A    between atoms: _543  and  _545
REMARK  213  A    between atoms: _545  and  _546
REMARK  214  A    between atoms: _545  and  _548
REMARK  215  A    between atoms: _548  and  _549
REMARK  216  A    between atoms: _552  and  _554
REMARK  217  A    between atoms: _554  and  _555
REMARK  218  A    between atoms: _554  and  _557
REMARK  219  A    between atoms: _557  and  _558
REMARK  220  A    between atoms: _558  and  _559
REMARK  221  A    between atoms: _559  and  _560
REMARK  222  A    between atoms: _569  and  _571
REMARK  223  A    between atoms: _571  and  _572
REMARK  224  A    between atoms: _571  and  _574
REMARK  225  A    between atoms: _574  and  _575
REMARK  226  A    between atoms: _578  and  _580
REMARK  227  A    between atoms: _580  and  _581
REMARK  228  A    between atoms: _584  and  _586
REMARK  229  A    between atoms: _586  and  _587
REMARK  230  A    between atoms: _590  and  _592
REMARK  231  A    between atoms: _592  and  _593
REMARK  232  A    between atoms: _592  and  _595
REMARK  233  A    between atoms: _595  and  _596
REMARK  234  A    between atoms: _596  and  _597
REMARK                            x       y       z     vdW  Elec       q    Type
REMARK                         _______ _______ _______ _____ _____    ______ ____
ROOT
ATOM      1  CA  LEU A   1       2.180  10.322  42.024  0.00  0.00    +0.133 C 
ENDROOT
BRANCH   1   2
ATOM      2  N   LEU A   1       2.662   9.849  43.317  0.00  0.00    -0.239 NA
ATOM      3  H   LEU A   1       3.234   8.982  43.364  0.00  0.00    +0.142 HD
ENDBRANCH   1   2
BRANCH   1   4
ATOM      4  C   LEU A   1       0.928   9.580  41.556  0.00  0.00    +0.224 C 
ATOM      5  O   LEU A   1       0.065  10.166  40.888  0.00  0.00    -0.287 OA
ENDBRANCH   1   4
BRANCH   1   6
ATOM      6  CB  LEU A   1       3.292  10.172  40.963  0.00  0.00    +0.025 C 
BRANCH   6   7
ATOM      7  CG  LEU A   1       4.570  10.946  41.236  0.00  0.00    +0.002 C 
ATOM      8  CD2 LEU A   1       4.294  12.507  41.194  0.00  0.00    +0.000 C 
ATOM      9  CD1 LEU A   1       5.663  10.507  40.251  0.00  0.00    +0.000 C 
ENDBRANCH   6   7
ENDBRANCH   1   6
TORSDOF 4
REMARK  Name = ../refined-set-2016/2xb8/2xb8_pocket.pdb
REMARK  234 active torsions:
REMARK  status: ('A' for Active; 'I' for Inactive)
REMARK    1  A    between atoms: _1  and  _3
REMARK    2  A    between atoms: _3  and  _4
REMARK    3  A    between atoms: _3  and  _6
REMARK    4  A    between atoms: _6  and  _7
REMARK    5  A    between atoms: _12  and  _14
REMARK    6  A    between atoms: _14  and  _15
REMARK    7  A    between atoms: _18  and  _19
REMARK    8  A    between atoms: _24  and  _26
REMARK    9  A    between atoms: _26  and  _27
REMARK   10  A    between atoms: _26  and  _29
REMARK   11  A    between atoms: _29  and  _30
REMARK   12  A    between atoms: _35  and  _37
REMARK   13  A    between atoms: _37  and  _38
REMARK   14  A    between atoms: _37  and  _40
REMARK   15  A    between atoms: _40  and  _41
REMARK   16  A    between atoms: _44  and  _46
REMARK   17  A    between atoms: _46  and  _47
REMARK   18  A    between atoms: _49  and  _51
REMARK   19  A    between atoms: _51  and  _52
REMARK   20  A    between atoms: _51  and  _54
REMARK   21  A    between atoms: _54  and  _55
REMARK   22  A    between atoms: _55  and  _56
REMARK   23  A    between atoms: _56  and  _57
REMARK   24  A    between atoms: _66  and  _68
REMARK   25  A    between atoms: _68  and  _69
REMARK   26  A    between atoms: _68  and  _71
REMARK   27  A    between atoms: _71  and  _72
REMARK   28  A    between atoms: _75  and  _77
REMARK   29  A    between atoms: _77  and  _78
REMARK   30  A    between atoms: _80  and  _82
REMARK   31  A    between atoms: _82  and  _83
REMARK   32  A    between atoms: _82  and  _85
REMARK   33  A    between atoms: _85  and  _86
REMARK   34  A    between atoms: _86  and  _87
REMARK   35  A    between atoms: _87  and  _88
REMARK   36  A    between atoms: _97  and  _99
REMARK   37  A    between atoms: _99  and  _100
REMARK   38  A    between atoms: _99  and  _102
REMARK   39  A    between atoms: _102  and  _103
REMARK   40  A    between atoms: _103  and  _104
REMARK   41  A    between atoms: _104  and  _105
REMARK   42  A    between atoms: _114  and  _116
REMARK   43  A    between atoms: _116  and  _117
REMARK   44  A    between atoms: _116  and  _119
REMARK   45  A    between atoms: _119  and  _120
REMARK   46  A    between atoms: _120  and  _121
REMARK   47  A    between atoms: _125  and  _126
REMARK   48  A    between atoms: _131  and  _133
REMARK   49  A    between atoms: _133  and  _134
REMARK   50  A    between atoms: _133  and  _136
REMARK   51  A    between atoms: _139  and  _141
REMARK   52  A    between atoms: _141  and  _142
REMARK   53  A    between atoms: _141  and  _144
REMARK   54  A    between atoms: _144  and  _145
REMARK   55  A    between atoms: _150  and  _151
REMARK   56  A    between atoms: _153  and  _155
REMARK   57  A    between atoms: _155  and  _156
REMARK   58  A    between atoms: _158  and  _160
REMARK   59  A    between atoms: _160  and  _161
REMARK   60  A    between atoms: _160  and  _163
REMARK   61  A    between atoms: _163  and  _164
REMARK   62  A    between atoms: _167  and  _169
REMARK   63  A    between atoms: _169  and  _170
REMARK   64  A    between atoms: _169  and  _172
REMARK   65  A    between atoms: _172  and  _173
REMARK   66  A    between atoms: _176  and  _178
REMARK   67  A    between atoms: _178  and  _179
REMARK   68  A    between atoms: _178  and  _181
REMARK   69  A    between atoms: _181  and  _182
REMARK   70  A    between atoms: _187  and  _189
REMARK   71  A    between atoms: _189  and  _190
REMARK   72  A    between atoms: _189  and  _192
REMARK   73  A    between atoms: _192  and  _193
REMARK   74  A    between atoms: _196  and  _198
REMARK   75  A    between atoms: _198  and  _199
REMARK   76  A    between atoms: _198  and  _201
REMARK   77  A    between atoms: _201  and  _202
REMARK   78  A    between atoms: _202  and  _203
REMARK   79  A    between atoms: _208  and  _210
REMARK   80  A    between atoms: _210  and  _211
REMARK   81  A    between atoms: _210  and  _213
REMARK   82  A    between atoms: _213  and  _214
REMARK   83  A    between atoms: _217  and  _219
REMARK   84  A    between atoms: _219  and  _220
REMARK   85  A    between atoms: _219  and  _222
REMARK   86  A    between atoms: _222  and  _223
REMARK   87  A    between atoms: _228  and  _230
REMARK   88  A    between atoms: _230  and  _231
REMARK   89  A    between atoms: _234  and  _236
REMARK   90  A    between atoms: _236  and  _237
REMARK   91  A    between atoms: _239  and  _241
REMARK   92  A    between atoms: _241  and  _242
REMARK   93  A    between atoms: _244  and  _246
REMARK   94  A    between atoms: _246  and  _247
REMARK   95  A    between atoms: _246  and  _249
REMARK   96  A    between atoms: _249  and  _250
REMARK   97  A    between atoms: _253  and  _255
REMARK   98  A    between atoms: _255  and  _256
REMARK   99  A    between atoms: _255  and  _258
REMARK  100  A    between atoms: _258  and  _259
REMARK  101  A    between atoms: _262  and  _264
REMARK  102  A    between atoms: _264  and  _265
REMARK  103  A    between atoms: _264  and  _267
REMARK  104  A    between atoms: _267  and  _268
REMARK  105  A    between atoms: _273  and  _275
REMARK  106  A    between atoms: _275  and  _276
REMARK  107  A    between atoms: _275  and  _278
REMARK  108  A    between atoms: _278  and  _279
REMARK  109  A    between atoms: _282  and  _284
REMARK  110  A    between atoms: _284  and  _285
REMARK  111  A    between atoms: _284  and  _287
REMARK  112  A    between atoms: _287  and  _288
REMARK  113  A    between atoms: _288  and  _289
REMARK  114  A    between atoms: _292  and  _294
REMARK  115  A    between atoms: _294  and  _295
REMARK  116  A    between atoms: _294  and  _297
REMARK  117  A    between atoms: _300  and  _302
REMARK  118  A    between atoms: _302  and  _303
REMARK  119  A    between atoms: _302  and  _305
REMARK  120  A    between atoms: _305  and  _306
REMARK  121  A    between atoms: _311  and  _313
REMARK  122  A    between atoms: _313  and  _314
REMARK  123  A    between atoms: _313  and  _316
REMARK  124  A    between atoms: _316  and  _317
REMARK  125  A    between atoms: _320  and  _322
REMARK  126  A    between atoms: _322  and  _323
REMARK  127  A    between atoms: _322  and  _325
REMARK  128  A    between atoms: _325  and  _326
REMARK  129  A    between atoms: _328  and  _330
REMARK  130  A    between atoms: _330  and  _331
REMARK  131  A    between atoms: _330  and  _333
REMARK  132  A    between atoms: _333  and  _334
REMARK  133  A    between atoms: _339  and  _341
REMARK  134  A    between atoms: _341  and  _342
REMARK  135  A    between atoms: _341  and  _344
REMARK  136  A    between atoms: _347  and  _349
REMARK  137  A    between atoms: _349  and  _350
REMARK  138  A    between atoms: _349  and  _352
REMARK  139  A    between atoms: _352  and  _353
REMARK  140  A    between atoms: _358  and  _360
REMARK  141  A    between atoms: _360  and  _361
REMARK  142  A    between atoms: _360  and  _363
REMARK  143  A    between atoms: _363  and  _364
REMARK  144  A    between atoms: _364  and  _365
REMARK  145  A    between atoms: _365  and  _366
REMARK  146  A    between atoms: _375  and  _377
REMARK  147  A    between atoms: _377  and  _378
REMARK  148  A    between atoms: _377  and  _380
REMARK  149  A    between atoms: _380  and  _381
REMARK  150  A    between atoms: _381  and  _382
REMARK  151  A    between atoms: _385  and  _387
REMARK  152  A    between atoms: _387  and  _388
REMARK  153  A    between atoms: _387  and  _390
REMARK  154  A    between atoms: _390  and  _391
REMARK  155  A    between atoms: _397  and  _399
REMARK  156  A    between atoms: _399  and  _400
REMARK  157  A    between atoms: _399  and  _402
REMARK  158  A    between atoms: _402  and  _403
REMARK  159  A    between atoms: _403  and  _404
REMARK  160  A    between atoms: _404  and  _405
REMARK  161  A    between atoms: _414  and  _416
REMARK  162  A    between atoms: _416  and  _417
REMARK  163  A    between atoms: _416  and  _419
REMARK  164  A    between atoms: _419  and  _420
REMARK  165  A    between atoms: _420  and  _421
REMARK  166  A    between atoms: _421  and  _422
REMARK  167  A    between atoms: _431  and  _433
REMARK  168  A    between atoms: _433  and  _434
REMARK  169  A    between atoms: _433  and  _436
REMARK  170  A    between atoms: _436  and  _437
REMARK  171  A    between atoms: _442  and  _444
REMARK  172  A    between atoms: _444  and  _445
REMARK  173  A    between atoms: _444  and  _447
REMARK  174  A    between atoms: _447  and  _448
REMARK  175  A    between atoms: _450  and  _452
REMARK  176  A    between atoms: _452  and  _453
REMARK  177  A    between atoms: _452  and  _455
REMARK  178  A    between atoms: _455  and  _456
REMARK  179  A    between atoms: _459  and  _461
REMARK  180  A    between atoms: _461  and  _462
REMARK  181  A    between atoms: _461  and  _464
REMARK  182  A    between atoms: _464  and  _465
REMARK  183  A    between atoms: _468  and  _470
REMARK  184  A    between atoms: _470  and  _471
REMARK  185  A    between atoms: _470  and  _473
REMARK  186  A    between atoms: _476  and  _478
REMARK  187  A    between atoms: _478  and  _479
REMARK  188  A    between atoms: _481  and  _483
REMARK  189  A    between atoms: _483  and  _484
REMARK  190  A    between atoms: _483  and  _486
REMARK  191  A    between atoms: _486  and  _487
REMARK  192  A    between atoms: _490  and  _492
REMARK  193  A    between atoms: _492  and  _493
REMARK  194  A    between atoms: _495  and  _497
REMARK  195  A    between atoms: _497  and  _498
REMARK  196  A    between atoms: _497  and  _500
REMARK  197  A    between atoms: _500  and  _501
REMARK  198  A    between atoms: _504  and  _506
REMARK  199  A    between atoms: _506  and  _507
REMARK  200  A    between atoms: _506  and  _509
REMARK  201  A    between atoms: _509  and  _510
REMARK  202  A    between atoms: _515  and  _516
REMARK  203  A    between atoms: _518  and  _520
REMARK  204  A    between atoms: _520  and  _521
REMARK  205  A    between atoms: _520  and  _523
REMARK  206  A    between atoms: _523  and  _524
REMARK  207  A    between atoms: _529  and  _531
REMARK  208  A    between atoms: _531  and  _532
REMARK  209  A    between atoms: _531  and  _534
REMARK  210  A    between atoms: _537  and  _539
REMARK  211  A    between atoms: _539  and  _540
REMARK  212  A    between atoms: _543  and  _545
REMARK  213  A    between atoms: _545  and  _546
REMARK  214  A    between atoms: _545  and  _548
REMARK  215  A    between atoms: _548  and  _549
REMARK  216  A    between atoms: _552  and  _554
REMARK  217  A    between atoms: _554  and  _555
REMARK  218  A    between atoms: _554  and  _557
REMARK  219  A    between atoms: _557  and  _558
REMARK  220  A    between atoms: _558  and  _559
REMARK  221  A    between atoms: _559  and  _560
REMARK  222  A    between atoms: _569  and  _571
REMARK  223  A    between atoms: _571  and  _572
REMARK  224  A    between atoms: _571  and  _574
REMARK  225  A    between atoms: _574  and  _575
REMARK  226  A    between atoms: _578  and  _580
REMARK  227  A    between atoms: _580  and  _581
REMARK  228  A    between atoms: _584  and  _586
REMARK  229  A    between atoms: _586  and  _587
REMARK  230  A    between atoms: _590  and  _592
REMARK  231  A    between atoms: _592  and  _593
REMARK  232  A    between atoms: _592  and  _595
REMARK  233  A    between atoms: _595  and  _596
REMARK  234  A    between atoms: _596  and  _597
REMARK                            x       y       z     vdW  Elec       q    Type
REMARK                         _______ _______ _______ _____ _____    ______ ____
ROOT
ATOM      1  C   GLY A   3       6.616  -4.431  33.486  0.00  0.00    +0.243 C 
ATOM      2  O   GLY A   3       6.980  -5.584  33.245  0.00  0.00    -0.273 OA
ATOM      3  N   LEU A   4       6.266  -3.563  32.533  0.00  0.00    -0.297 N 
ATOM      4  H   LEU A   4       6.034  -2.586  32.803  0.00  0.00    +0.150 HD
ENDROOT
BRANCH   3   5
ATOM      5  CA  LEU A   4       6.199  -3.940  31.126  0.00  0.00    +0.149 C 
BRANCH   5   6
ATOM      6  C   LEU A   4       7.461  -3.500  30.410  0.00  0.00    +0.241 C 
ATOM      7  N   GLY A   5       8.468  -3.150  31.198  0.00  0.00    -0.295 N 
ATOM      8  H   GLY A   5       8.331  -3.197  32.228  0.00  0.00    +0.150 HD
ATOM      9  O   LEU A   4       7.527  -3.479  29.182  0.00  0.00    -0.273 OA
BRANCH   7  10
ATOM     10  CA  GLY A   5       9.751  -2.705  30.692  0.00  0.00    +0.176 C 
BRANCH  10  11
ATOM     11  C   GLY A   5       9.658  -1.407  29.919  0.00  0.00    +0.243 C 
ATOM     12  O   GLY A   5       8.738  -0.627  30.088  0.00  0.00    -0.273 OA
ATOM     13  N   ILE A   6      10.656  -1.180  29.095  0.00  0.00    -0.298 N 
ATOM     14  H   ILE A   6      11.448  -1.853  29.101  0.00  0.00    +0.150 HD
BRANCH  13  15
ATOM     15  CA  ILE A   6      10.734  -0.059  28.177  0.00  0.00    +0.137 C 
BRANCH  15  16
ATOM     16  CB  ILE A   6      12.029  -0.249  27.293  0.00  0.00    +0.026 C 
ATOM     17  CG2 ILE A   6      11.771  -0.110  25.808  0.00  0.00    +0.002 C 
BRANCH  16  18
ATOM     18  CG1 ILE A   6      13.109   0.712  27.777  0.00  0.00    +0.002 C 
ATOM     19  CD1 ILE A   6      13.620   0.349  29.117  0.00  0.00    +0.000 C 
ENDBRANCH  16  18
ENDBRANCH  15  16
BRANCH  15  20
ATOM     20  C   ILE A   6       9.462   0.143  27.351  0.00  0.00    +0.227 C 
ATOM     21  O   ILE A   6       9.032   1.276  27.138  0.00  0.00    -0.286 OA
ENDBRANCH  15  20
ENDBRANCH  13  15
ENDBRANCH  10  11
ENDBRANCH   7  10
ENDBRANCH   5   6
BRANCH   5  22
ATOM     22  CB  LEU A   4       4.944  -3.343  30.479  0.00  0.00    +0.029 C 
BRANCH  22  23
ATOM     23  CG  LEU A   4       3.615  -3.833  31.103  0.00  0.00    +0.002 C 
ATOM     24  CD2 LEU A   4       3.618  -5.337  31.210  0.00  0.00    +0.000 C 
ATOM     25  CD1 LEU A   4       2.369  -3.343  30.315  0.00  0.00    +0.000 C 
ENDBRANCH  22  23
ENDBRANCH   5  22
ENDBRANCH   3   5
BRANCH   1  26
ATOM     26  CA  GLY A   3       6.574  -3.943  34.935  0.00  0.00    +0.176 C 
BRANCH  26  28
ATOM     27  C   VAL A   2       4.826  -2.277  35.239  0.00  0.00    +0.241 C 
ATOM     28  N   GLY A   3       6.106  -2.597  35.219  0.00  0.00    -0.295 N 
ATOM     29  H   GLY A   3       6.809  -1.856  35.414  0.00  0.00    +0.150 HD
ATOM     30  O   VAL A   2       3.954  -3.056  34.886  0.00  0.00    -0.273 OA
BRANCH  27  31
ATOM     31  CA  VAL A   2       4.494  -0.846  35.676  0.00  0.00    +0.148 C 
BRANCH  31  33
ATOM     32  C   ILE A   1       3.154   0.879  34.534  0.00  0.00    +0.238 C 
ATOM     33  N   VAL A   2       3.223  -0.353  35.061  0.00  0.00    -0.297 N 
ATOM     34  H   VAL A   2       2.386  -0.970  35.042  0.00  0.00    +0.150 HD
ATOM     35  O   ILE A   1       4.067   1.676  34.602  0.00  0.00    -0.274 OA
BRANCH  32  36
ATOM     36  CA  ILE A   1       1.892   1.302  33.831  0.00  0.00    +0.145 C 
BRANCH  36  37
ATOM     37  N   ILE A   1       1.432   2.553  34.444  0.00  0.00    -0.238 NA
ATOM     38  H   ILE A   1       2.038   3.396  34.385  0.00  0.00    +0.142 HD
ENDBRANCH  36  37
BRANCH  36  39
ATOM     39  CB  ILE A   1       2.240   1.448  32.321  0.00  0.00    +0.025 C 
ATOM     40  CG2 ILE A   1       2.743   0.107  31.759  0.00  0.00    +0.002 C 
BRANCH  39  41
ATOM     41  CG1 ILE A   1       1.030   1.921  31.521  0.00  0.00    +0.002 C 
ATOM     42  CD1 ILE A   1       1.333   2.357  30.101  0.00  0.00    +0.000 C 
ENDBRANCH  39  41
ENDBRANCH  36  39
ENDBRANCH  32  36
ENDBRANCH  31  33
BRANCH  31  43
ATOM     43  CB  VAL A   2       4.497  -0.720  37.235  0.00  0.00    +0.027 C 
ATOM     44  CG2 VAL A   2       3.654  -1.848  37.899  0.00  0.00    +0.002 C 
ATOM     45  CG1 VAL A   2       3.997   0.692  37.677  0.00  0.00    +0.002 C 
ENDBRANCH  31  43
ENDBRANCH  27  31
ENDBRANCH  26  28
ENDBRANCH   1  26
TORSDOF 19
REMARK  Name = ../refined-set-2016/2xb8/2xb8_pocket.pdb
REMARK  234 active torsions:
REMARK  status: ('A' for Active; 'I' for Inactive)
REMARK    1  A    between atoms: _1  and  _3
REMARK    2  A    between atoms: _3  and  _4
REMARK    3  A    between atoms: _3  and  _6
REMARK    4  A    between atoms: _6  and  _7
REMARK    5  A    between atoms: _12  and  _14
REMARK    6  A    between atoms: _14  and  _15
REMARK    7  A    between atoms: _18  and  _19
REMARK    8  A    between atoms: _24  and  _26
REMARK    9  A    between atoms: _26  and  _27
REMARK   10  A    between atoms: _26  and  _29
REMARK   11  A    between atoms: _29  and  _30
REMARK   12  A    between atoms: _35  and  _37
REMARK   13  A    between atoms: _37  and  _38
REMARK   14  A    between atoms: _37  and  _40
REMARK   15  A    between atoms: _40  and  _41
REMARK   16  A    between atoms: _44  and  _46
REMARK   17  A    between atoms: _46  and  _47
REMARK   18  A    between atoms: _49  and  _51
REMARK   19  A    between atoms: _51  and  _52
REMARK   20  A    between atoms: _51  and  _54
REMARK   21  A    between atoms: _54  and  _55
REMARK   22  A    between atoms: _55  and  _56
REMARK   23  A    between atoms: _56  and  _57
REMARK   24  A    between atoms: _66  and  _68
REMARK   25  A    between atoms: _68  and  _69
REMARK   26  A    between atoms: _68  and  _71
REMARK   27  A    between atoms: _71  and  _72
REMARK   28  A    between atoms: _75  and  _77
REMARK   29  A    between atoms: _77  and  _78
REMARK   30  A    between atoms: _80  and  _82
REMARK   31  A    between atoms: _82  and  _83
REMARK   32  A    between atoms: _82  and  _85
REMARK   33  A    between atoms: _85  and  _86
REMARK   34  A    between atoms: _86  and  _87
REMARK   35  A    between atoms: _87  and  _88
REMARK   36  A    between atoms: _97  and  _99
REMARK   37  A    between atoms: _99  and  _100
REMARK   38  A    between atoms: _99  and  _102
REMARK   39  A    between atoms: _102  and  _103
REMARK   40  A    between atoms: _103  and  _104
REMARK   41  A    between atoms: _104  and  _105
REMARK   42  A    between atoms: _114  and  _116
REMARK   43  A    between atoms: _116  and  _117
REMARK   44  A    between atoms: _116  and  _119
REMARK   45  A    between atoms: _119  and  _120
REMARK   46  A    between atoms: _120  and  _121
REMARK   47  A    between atoms: _125  and  _126
REMARK   48  A    between atoms: _131  and  _133
REMARK   49  A    between atoms: _133  and  _134
REMARK   50  A    between atoms: _133  and  _136
REMARK   51  A    between atoms: _139  and  _141
REMARK   52  A    between atoms: _141  and  _142
REMARK   53  A    between atoms: _141  and  _144
REMARK   54  A    between atoms: _144  and  _145
REMARK   55  A    between atoms: _150  and  _151
REMARK   56  A    between atoms: _153  and  _155
REMARK   57  A    between atoms: _155  and  _156
REMARK   58  A    between atoms: _158  and  _160
REMARK   59  A    between atoms: _160  and  _161
REMARK   60  A    between atoms: _160  and  _163
REMARK   61  A    between atoms: _163  and  _164
REMARK   62  A    between atoms: _167  and  _169
REMARK   63  A    between atoms: _169  and  _170
REMARK   64  A    between atoms: _169  and  _172
REMARK   65  A    between atoms: _172  and  _173
REMARK   66  A    between atoms: _176  and  _178
REMARK   67  A    between atoms: _178  and  _179
REMARK   68  A    between atoms: _178  and  _181
REMARK   69  A    between atoms: _181  and  _182
REMARK   70  A    between atoms: _187  and  _189
REMARK   71  A    between atoms: _189  and  _190
REMARK   72  A    between atoms: _189  and  _192
REMARK   73  A    between atoms: _192  and  _193
REMARK   74  A    between atoms: _196  and  _198
REMARK   75  A    between atoms: _198  and  _199
REMARK   76  A    between atoms: _198  and  _201
REMARK   77  A    between atoms: _201  and  _202
REMARK   78  A    between atoms: _202  and  _203
REMARK   79  A    between atoms: _208  and  _210
REMARK   80  A    between atoms: _210  and  _211
REMARK   81  A    between atoms: _210  and  _213
REMARK   82  A    between atoms: _213  and  _214
REMARK   83  A    between atoms: _217  and  _219
REMARK   84  A    between atoms: _219  and  _220
REMARK   85  A    between atoms: _219  and  _222
REMARK   86  A    between atoms: _222  and  _223
REMARK   87  A    between atoms: _228  and  _230
REMARK   88  A    between atoms: _230  and  _231
REMARK   89  A    between atoms: _234  and  _236
REMARK   90  A    between atoms: _236  and  _237
REMARK   91  A    between atoms: _239  and  _241
REMARK   92  A    between atoms: _241  and  _242
REMARK   93  A    between atoms: _244  and  _246
REMARK   94  A    between atoms: _246  and  _247
REMARK   95  A    between atoms: _246  and  _249
REMARK   96  A    between atoms: _249  and  _250
REMARK   97  A    between atoms: _253  and  _255
REMARK   98  A    between atoms: _255  and  _256
REMARK   99  A    between atoms: _255  and  _258
REMARK  100  A    between atoms: _258  and  _259
REMARK  101  A    between atoms: _262  and  _264
REMARK  102  A    between atoms: _264  and  _265
REMARK  103  A    between atoms: _264  and  _267
REMARK  104  A    between atoms: _267  and  _268
REMARK  105  A    between atoms: _273  and  _275
REMARK  106  A    between atoms: _275  and  _276
REMARK  107  A    between atoms: _275  and  _278
REMARK  108  A    between atoms: _278  and  _279
REMARK  109  A    between atoms: _282  and  _284
REMARK  110  A    between atoms: _284  and  _285
REMARK  111  A    between atoms: _284  and  _287
REMARK  112  A    between atoms: _287  and  _288
REMARK  113  A    between atoms: _288  and  _289
REMARK  114  A    between atoms: _292  and  _294
REMARK  115  A    between atoms: _294  and  _295
REMARK  116  A    between atoms: _294  and  _297
REMARK  117  A    between atoms: _300  and  _302
REMARK  118  A    between atoms: _302  and  _303
REMARK  119  A    between atoms: _302  and  _305
REMARK  120  A    between atoms: _305  and  _306
REMARK  121  A    between atoms: _311  and  _313
REMARK  122  A    between atoms: _313  and  _314
REMARK  123  A    between atoms: _313  and  _316
REMARK  124  A    between atoms: _316  and  _317
REMARK  125  A    between atoms: _320  and  _322
REMARK  126  A    between atoms: _322  and  _323
REMARK  127  A    between atoms: _322  and  _325
REMARK  128  A    between atoms: _325  and  _326
REMARK  129  A    between atoms: _328  and  _330
REMARK  130  A    between atoms: _330  and  _331
REMARK  131  A    between atoms: _330  and  _333
REMARK  132  A    between atoms: _333  and  _334
REMARK  133  A    between atoms: _339  and  _341
REMARK  134  A    between atoms: _341  and  _342
REMARK  135  A    between atoms: _341  and  _344
REMARK  136  A    between atoms: _347  and  _349
REMARK  137  A    between atoms: _349  and  _350
REMARK  138  A    between atoms: _349  and  _352
REMARK  139  A    between atoms: _352  and  _353
REMARK  140  A    between atoms: _358  and  _360
REMARK  141  A    between atoms: _360  and  _361
REMARK  142  A    between atoms: _360  and  _363
REMARK  143  A    between atoms: _363  and  _364
REMARK  144  A    between atoms: _364  and  _365
REMARK  145  A    between atoms: _365  and  _366
REMARK  146  A    between atoms: _375  and  _377
REMARK  147  A    between atoms: _377  and  _378
REMARK  148  A    between atoms: _377  and  _380
REMARK  149  A    between atoms: _380  and  _381
REMARK  150  A    between atoms: _381  and  _382
REMARK  151  A    between atoms: _385  and  _387
REMARK  152  A    between atoms: _387  and  _388
REMARK  153  A    between atoms: _387  and  _390
REMARK  154  A    between atoms: _390  and  _391
REMARK  155  A    between atoms: _397  and  _399
REMARK  156  A    between atoms: _399  and  _400
REMARK  157  A    between atoms: _399  and  _402
REMARK  158  A    between atoms: _402  and  _403
REMARK  159  A    between atoms: _403  and  _404
REMARK  160  A    between atoms: _404  and  _405
REMARK  161  A    between atoms: _414  and  _416
REMARK  162  A    between atoms: _416  and  _417
REMARK  163  A    between atoms: _416  and  _419
REMARK  164  A    between atoms: _419  and  _420
REMARK  165  A    between atoms: _420  and  _421
REMARK  166  A    between atoms: _421  and  _422
REMARK  167  A    between atoms: _431  and  _433
REMARK  168  A    between atoms: _433  and  _434
REMARK  169  A    between atoms: _433  and  _436
REMARK  170  A    between atoms: _436  and  _437
REMARK  171  A    between atoms: _442  and  _444
REMARK  172  A    between atoms: _444  and  _445
REMARK  173  A    between atoms: _444  and  _447
REMARK  174  A    between atoms: _447  and  _448
REMARK  175  A    between atoms: _450  and  _452
REMARK  176  A    between atoms: _452  and  _453
REMARK  177  A    between atoms: _452  and  _455
REMARK  178  A    between atoms: _455  and  _456
REMARK  179  A    between atoms: _459  and  _461
REMARK  180  A    between atoms: _461  and  _462
REMARK  181  A    between atoms: _461  and  _464
REMARK  182  A    between atoms: _464  and  _465
REMARK  183  A    between atoms: _468  and  _470
REMARK  184  A    between atoms: _470  and  _471
REMARK  185  A    between atoms: _470  and  _473
REMARK  186  A    between atoms: _476  and  _478
REMARK  187  A    between atoms: _478  and  _479
REMARK  188  A    between atoms: _481  and  _483
REMARK  189  A    between atoms: _483  and  _484
REMARK  190  A    between atoms: _483  and  _486
REMARK  191  A    between atoms: _486  and  _487
REMARK  192  A    between atoms: _490  and  _492
REMARK  193  A    between atoms: _492  and  _493
REMARK  194  A    between atoms: _495  and  _497
REMARK  195  A    between atoms: _497  and  _498
REMARK  196  A    between atoms: _497  and  _500
REMARK  197  A    between atoms: _500  and  _501
REMARK  198  A    between atoms: _504  and  _506
REMARK  199  A    between atoms: _506  and  _507
REMARK  200  A    between atoms: _506  and  _509
REMARK  201  A    between atoms: _509  and  _510
REMARK  202  A    between atoms: _515  and  _516
REMARK  203  A    between atoms: _518  and  _520
REMARK  204  A    between atoms: _520  and  _521
REMARK  205  A    between atoms: _520  and  _523
REMARK  206  A    between atoms: _523  and  _524
REMARK  207  A    between atoms: _529  and  _531
REMARK  208  A    between atoms: _531  and  _532
REMARK  209  A    between atoms: _531  and  _534
REMARK  210  A    between atoms: _537  and  _539
REMARK  211  A    between atoms: _539  and  _540
REMARK  212  A    between atoms: _543  and  _545
REMARK  213  A    between atoms: _545  and  _546
REMARK  214  A    between atoms: _545  and  _548
REMARK  215  A    between atoms: _548  and  _549
REMARK  216  A    between atoms: _552  and  _554
REMARK  217  A    between atoms: _554  and  _555
REMARK  218  A    between atoms: _554  and  _557
REMARK  219  A    between atoms: _557  and  _558
REMARK  220  A    between atoms: _558  and  _559
REMARK  221  A    between atoms: _559  and  _560
REMARK  222  A    between atoms: _569  and  _571
REMARK  223  A    between atoms: _571  and  _572
REMARK  224  A    between atoms: _571  and  _574
REMARK  225  A    between atoms: _574  and  _575
REMARK  226  A    between atoms: _578  and  _580
REMARK  227  A    between atoms: _580  and  _581
REMARK  228  A    between atoms: _584  and  _586
REMARK  229  A    between atoms: _586  and  _587
REMARK  230  A    between atoms: _590  and  _592
REMARK  231  A    between atoms: _592  and  _593
REMARK  232  A    between atoms: _592  and  _595
REMARK  233  A    between atoms: _595  and  _596
REMARK  234  A    between atoms: _596  and  _597
REMARK                            x       y       z     vdW  Elec       q    Type
REMARK                         _______ _______ _______ _____ _____    ______ ____
ROOT
ATOM      1  CG  TYR A   1       8.941   4.901  28.618  0.00  0.00    -0.020 A 
ATOM      2  CD2 TYR A   1       8.984   6.124  29.276  0.00  0.00    -0.001 A 
ATOM      3  CE2 TYR A   1       9.796   6.306  30.390  0.00  0.00    +0.036 A 
ATOM      4  CZ  TYR A   1      10.568   5.278  30.843  0.00  0.00    +0.134 A 
ATOM      5  CE1 TYR A   1      10.530   4.037  30.213  0.00  0.00    +0.036 A 
ATOM      6  CD1 TYR A   1       9.741   3.857  29.106  0.00  0.00    -0.001 A 
ENDROOT
BRANCH   4   7
ATOM      7  OH  TYR A   1      11.388   5.475  31.949  0.00  0.00    -0.506 OA
ATOM      8  HH  TYR A   1      11.292   6.407  32.268  0.00  0.00    +0.292 HD
ENDBRANCH   4   7
BRANCH   1   9
ATOM      9  CB  TYR A   1       8.102   4.720  27.391  0.00  0.00    +0.051 C 
BRANCH   9  10
ATOM     10  CA  TYR A   1       6.693   4.234  27.634  0.00  0.00    +0.137 C 
BRANCH  10  11
ATOM     11  N   TYR A   1       6.688   2.882  28.219  0.00  0.00    -0.239 NA
ATOM     12  H   TYR A   1       7.593   2.403  28.401  0.00  0.00    +0.142 HD
ENDBRANCH  10  11
BRANCH  10  13
ATOM     13  C   TYR A   1       5.960   4.313  26.307  0.00  0.00    +0.224 C 
ATOM     14  O   TYR A   1       5.168   5.227  26.086  0.00  0.00    -0.287 OA
ENDBRANCH  10  13
ENDBRANCH   9  10
ENDBRANCH   1   9
TORSDOF 5
REMARK  Name = ../refined-set-2016/2xb8/2xb8_pocket.pdb
REMARK  234 active torsions:
REMARK  status: ('A' for Active; 'I' for Inactive)
REMARK    1  A    between atoms: _1  and  _3
REMARK    2  A    between atoms: _3  and  _4
REMARK    3  A    between atoms: _3  and  _6
REMARK    4  A    between atoms: _6  and  _7
REMARK    5  A    between atoms: _12  and  _14
REMARK    6  A    between atoms: _14  and  _15
REMARK    7  A    between atoms: _18  and  _19
REMARK    8  A    between atoms: _24  and  _26
REMARK    9  A    between atoms: _26  and  _27
REMARK   10  A    between atoms: _26  and  _29
REMARK   11  A    between atoms: _29  and  _30
REMARK   12  A    between atoms: _35  and  _37
REMARK   13  A    between atoms: _37  and  _38
REMARK   14  A    between atoms: _37  and  _40
REMARK   15  A    between atoms: _40  and  _41
REMARK   16  A    between atoms: _44  and  _46
REMARK   17  A    between atoms: _46  and  _47
REMARK   18  A    between atoms: _49  and  _51
REMARK   19  A    between atoms: _51  and  _52
REMARK   20  A    between atoms: _51  and  _54
REMARK   21  A    between atoms: _54  and  _55
REMARK   22  A    between atoms: _55  and  _56
REMARK   23  A    between atoms: _56  and  _57
REMARK   24  A    between atoms: _66  and  _68
REMARK   25  A    between atoms: _68  and  _69
REMARK   26  A    between atoms: _68  and  _71
REMARK   27  A    between atoms: _71  and  _72
REMARK   28  A    between atoms: _75  and  _77
REMARK   29  A    between atoms: _77  and  _78
REMARK   30  A    between atoms: _80  and  _82
REMARK   31  A    between atoms: _82  and  _83
REMARK   32  A    between atoms: _82  and  _85
REMARK   33  A    between atoms: _85  and  _86
REMARK   34  A    between atoms: _86  and  _87
REMARK   35  A    between atoms: _87  and  _88
REMARK   36  A    between atoms: _97  and  _99
REMARK   37  A    between atoms: _99  and  _100
REMARK   38  A    between atoms: _99  and  _102
REMARK   39  A    between atoms: _102  and  _103
REMARK   40  A    between atoms: _103  and  _104
REMARK   41  A    between atoms: _104  and  _105
REMARK   42  A    between atoms: _114  and  _116
REMARK   43  A    between atoms: _116  and  _117
REMARK   44  A    between atoms: _116  and  _119
REMARK   45  A    between atoms: _119  and  _120
REMARK   46  A    between atoms: _120  and  _121
REMARK   47  A    between atoms: _125  and  _126
REMARK   48  A    between atoms: _131  and  _133
REMARK   49  A    between atoms: _133  and  _134
REMARK   50  A    between atoms: _133  and  _136
REMARK   51  A    between atoms: _139  and  _141
REMARK   52  A    between atoms: _141  and  _142
REMARK   53  A    between atoms: _141  and  _144
REMARK   54  A    between atoms: _144  and  _145
REMARK   55  A    between atoms: _150  and  _151
REMARK   56  A    between atoms: _153  and  _155
REMARK   57  A    between atoms: _155  and  _156
REMARK   58  A    between atoms: _158  and  _160
REMARK   59  A    between atoms: _160  and  _161
REMARK   60  A    between atoms: _160  and  _163
REMARK   61  A    between atoms: _163  and  _164
REMARK   62  A    between atoms: _167  and  _169
REMARK   63  A    between atoms: _169  and  _170
REMARK   64  A    between atoms: _169  and  _172
REMARK   65  A    between atoms: _172  and  _173
REMARK   66  A    between atoms: _176  and  _178
REMARK   67  A    between atoms: _178  and  _179
REMARK   68  A    between atoms: _178  and  _181
REMARK   69  A    between atoms: _181  and  _182
REMARK   70  A    between atoms: _187  and  _189
REMARK   71  A    between atoms: _189  and  _190
REMARK   72  A    between atoms: _189  and  _192
REMARK   73  A    between atoms: _192  and  _193
REMARK   74  A    between atoms: _196  and  _198
REMARK   75  A    between atoms: _198  and  _199
REMARK   76  A    between atoms: _198  and  _201
REMARK   77  A    between atoms: _201  and  _202
REMARK   78  A    between atoms: _202  and  _203
REMARK   79  A    between atoms: _208  and  _210
REMARK   80  A    between atoms: _210  and  _211
REMARK   81  A    between atoms: _210  and  _213
REMARK   82  A    between atoms: _213  and  _214
REMARK   83  A    between atoms: _217  and  _219
REMARK   84  A    between atoms: _219  and  _220
REMARK   85  A    between atoms: _219  and  _222
REMARK   86  A    between atoms: _222  and  _223
REMARK   87  A    between atoms: _228  and  _230
REMARK   88  A    between atoms: _230  and  _231
REMARK   89  A    between atoms: _234  and  _236
REMARK   90  A    between atoms: _236  and  _237
REMARK   91  A    between atoms: _239  and  _241
REMARK   92  A    between atoms: _241  and  _242
REMARK   93  A    between atoms: _244  and  _246
REMARK   94  A    between atoms: _246  and  _247
REMARK   95  A    between atoms: _246  and  _249
REMARK   96  A    between atoms: _249  and  _250
REMARK   97  A    between atoms: _253  and  _255
REMARK   98  A    between atoms: _255  and  _256
REMARK   99  A    between atoms: _255  and  _258
REMARK  100  A    between atoms: _258  and  _259
REMARK  101  A    between atoms: _262  and  _264
REMARK  102  A    between atoms: _264  and  _265
REMARK  103  A    between atoms: _264  and  _267
REMARK  104  A    between atoms: _267  and  _268
REMARK  105  A    between atoms: _273  and  _275
REMARK  106  A    between atoms: _275  and  _276
REMARK  107  A    between atoms: _275  and  _278
REMARK  108  A    between atoms: _278  and  _279
REMARK  109  A    between atoms: _282  and  _284
REMARK  110  A    between atoms: _284  and  _285
REMARK  111  A    between atoms: _284  and  _287
REMARK  112  A    between atoms: _287  and  _288
REMARK  113  A    between atoms: _288  and  _289
REMARK  114  A    between atoms: _292  and  _294
REMARK  115  A    between atoms: _294  and  _295
REMARK  116  A    between atoms: _294  and  _297
REMARK  117  A    between atoms: _300  and  _302
REMARK  118  A    between atoms: _302  and  _303
REMARK  119  A    between atoms: _302  and  _305
REMARK  120  A    between atoms: _305  and  _306
REMARK  121  A    between atoms: _311  and  _313
REMARK  122  A    between atoms: _313  and  _314
REMARK  123  A    between atoms: _313  and  _316
REMARK  124  A    between atoms: _316  and  _317
REMARK  125  A    between atoms: _320  and  _322
REMARK  126  A    between atoms: _322  and  _323
REMARK  127  A    between atoms: _322  and  _325
REMARK  128  A    between atoms: _325  and  _326
REMARK  129  A    between atoms: _328  and  _330
REMARK  130  A    between atoms: _330  and  _331
REMARK  131  A    between atoms: _330  and  _333
REMARK  132  A    between atoms: _333  and  _334
REMARK  133  A    between atoms: _339  and  _341
REMARK  134  A    between atoms: _341  and  _342
REMARK  135  A    between atoms: _341  and  _344
REMARK  136  A    between atoms: _347  and  _349
REMARK  137  A    between atoms: _349  and  _350
REMARK  138  A    between atoms: _349  and  _352
REMARK  139  A    between atoms: _352  and  _353
REMARK  140  A    between atoms: _358  and  _360
REMARK  141  A    between atoms: _360  and  _361
REMARK  142  A    between atoms: _360  and  _363
REMARK  143  A    between atoms: _363  and  _364
REMARK  144  A    between atoms: _364  and  _365
REMARK  145  A    between atoms: _365  and  _366
REMARK  146  A    between atoms: _375  and  _377
REMARK  147  A    between atoms: _377  and  _378
REMARK  148  A    between atoms: _377  and  _380
REMARK  149  A    between atoms: _380  and  _381
REMARK  150  A    between atoms: _381  and  _382
REMARK  151  A    between atoms: _385  and  _387
REMARK  152  A    between atoms: _387  and  _388
REMARK  153  A    between atoms: _387  and  _390
REMARK  154  A    between atoms: _390  and  _391
REMARK  155  A    between atoms: _397  and  _399
REMARK  156  A    between atoms: _399  and  _400
REMARK  157  A    between atoms: _399  and  _402
REMARK  158  A    between atoms: _402  and  _403
REMARK  159  A    between atoms: _403  and  _404
REMARK  160  A    between atoms: _404  and  _405
REMARK  161  A    between atoms: _414  and  _416
REMARK  162  A    between atoms: _416  and  _417
REMARK  163  A    between atoms: _416  and  _419
REMARK  164  A    between atoms: _419  and  _420
REMARK  165  A    between atoms: _420  and  _421
REMARK  166  A    between atoms: _421  and  _422
REMARK  167  A    between atoms: _431  and  _433
REMARK  168  A    between atoms: _433  and  _434
REMARK  169  A    between atoms: _433  and  _436
REMARK  170  A    between atoms: _436  and  _437
REMARK  171  A    between atoms: _442  and  _444
REMARK  172  A    between atoms: _444  and  _445
REMARK  173  A    between atoms: _444  and  _447
REMARK  174  A    between atoms: _447  and  _448
REMARK  175  A    between atoms: _450  and  _452
REMARK  176  A    between atoms: _452  and  _453
REMARK  177  A    between atoms: _452  and  _455
REMARK  178  A    between atoms: _455  and  _456
REMARK  179  A    between atoms: _459  and  _461
REMARK  180  A    between atoms: _461  and  _462
REMARK  181  A    between atoms: _461  and  _464
REMARK  182  A    between atoms: _464  and  _465
REMARK  183  A    between atoms: _468  and  _470
REMARK  184  A    between atoms: _470  and  _471
REMARK  185  A    between atoms: _470  and  _473
REMARK  186  A    between atoms: _476  and  _478
REMARK  187  A    between atoms: _478  and  _479
REMARK  188  A    between atoms: _481  and  _483
REMARK  189  A    between atoms: _483  and  _484
REMARK  190  A    between atoms: _483  and  _486
REMARK  191  A    between atoms: _486  and  _487
REMARK  192  A    between atoms: _490  and  _492
REMARK  193  A    between atoms: _492  and  _493
REMARK  194  A    between atoms: _495  and  _497
REMARK  195  A    between atoms: _497  and  _498
REMARK  196  A    between atoms: _497  and  _500
REMARK  197  A    between atoms: _500  and  _501
REMARK  198  A    between atoms: _504  and  _506
REMARK  199  A    between atoms: _506  and  _507
REMARK  200  A    between atoms: _506  and  _509
REMARK  201  A    between atoms: _509  and  _510
REMARK  202  A    between atoms: _515  and  _516
REMARK  203  A    between atoms: _518  and  _520
REMARK  204  A    between atoms: _520  and  _521
REMARK  205  A    between atoms: _520  and  _523
REMARK  206  A    between atoms: _523  and  _524
REMARK  207  A    between atoms: _529  and  _531
REMARK  208  A    between atoms: _531  and  _532
REMARK  209  A    between atoms: _531  and  _534
REMARK  210  A    between atoms: _537  and  _539
REMARK  211  A    between atoms: _539  and  _540
REMARK  212  A    between atoms: _543  and  _545
REMARK  213  A    between atoms: _545  and  _546
REMARK  214  A    between atoms: _545  and  _548
REMARK  215  A    between atoms: _548  and  _549
REMARK  216  A    between atoms: _552  and  _554
REMARK  217  A    between atoms: _554  and  _555
REMARK  218  A    between atoms: _554  and  _557
REMARK  219  A    between atoms: _557  and  _558
REMARK  220  A    between atoms: _558  and  _559
REMARK  221  A    between atoms: _559  and  _560
REMARK  222  A    between atoms: _569  and  _571
REMARK  223  A    between atoms: _571  and  _572
REMARK  224  A    between atoms: _571  and  _574
REMARK  225  A    between atoms: _574  and  _575
REMARK  226  A    between atoms: _578  and  _580
REMARK  227  A    between atoms: _580  and  _581
REMARK  228  A    between atoms: _584  and  _586
REMARK  229  A    between atoms: _586  and  _587
REMARK  230  A    between atoms: _590  and  _592
REMARK  231  A    between atoms: _592  and  _593
REMARK  232  A    between atoms: _592  and  _595
REMARK  233  A    between atoms: _595  and  _596
REMARK  234  A    between atoms: _596  and  _597
REMARK                            x       y       z     vdW  Elec       q    Type
REMARK                         _______ _______ _______ _____ _____    ______ ____
ROOT
ATOM      1  CB  HIS A   1      27.286   7.410  38.644  0.00  0.00    +0.072 C 
ENDROOT
BRANCH   1   2
ATOM      2  CG  HIS A   1      25.824   7.706  38.801  0.00  0.00    +0.082 A 
ATOM      3  ND1 HIS A   1      24.958   6.897  39.501  0.00  0.00    -0.227 NA
ATOM      4  CE1 HIS A   1      23.741   7.416  39.458  0.00  0.00    +0.199 A 
ATOM      5  NE2 HIS A   1      23.779   8.510  38.720  0.00  0.00    -0.221 NA
ATOM      6  CD2 HIS A   1      25.070   8.712  38.296  0.00  0.00    +0.115 A 
ENDBRANCH   1   2
BRANCH   1   7
ATOM      7  CA  HIS A   1      27.881   6.460  39.698  0.00  0.00    +0.139 C 
BRANCH   7   8
ATOM      8  N   HIS A   1      27.777   6.978  41.068  0.00  0.00    -0.239 NA
ATOM      9  H   HIS A   1      27.239   7.851  41.244  0.00  0.00    +0.142 HD
ENDBRANCH   7   8
BRANCH   7  10
ATOM     10  C   HIS A   1      29.362   6.165  39.337  0.00  0.00    +0.224 C 
ATOM     11  O   HIS A   1      29.671   5.129  38.799  0.00  0.00    -0.287 OA
ENDBRANCH   7  10
ENDBRANCH   1   7
TORSDOF 4
REMARK  Name = ../refined-set-2016/2xb8/2xb8_pocket.pdb
REMARK  234 active torsions:
REMARK  status: ('A' for Active; 'I' for Inactive)
REMARK    1  A    between atoms: _1  and  _3
REMARK    2  A    between atoms: _3  and  _4
REMARK    3  A    between atoms: _3  and  _6
REMARK    4  A    between atoms: _6  and  _7
REMARK    5  A    between atoms: _12  and  _14
REMARK    6  A    between atoms: _14  and  _15
REMARK    7  A    between atoms: _18  and  _19
REMARK    8  A    between atoms: _24  and  _26
REMARK    9  A    between atoms: _26  and  _27
REMARK   10  A    between atoms: _26  and  _29
REMARK   11  A    between atoms: _29  and  _30
REMARK   12  A    between atoms: _35  and  _37
REMARK   13  A    between atoms: _37  and  _38
REMARK   14  A    between atoms: _37  and  _40
REMARK   15  A    between atoms: _40  and  _41
REMARK   16  A    between atoms: _44  and  _46
REMARK   17  A    between atoms: _46  and  _47
REMARK   18  A    between atoms: _49  and  _51
REMARK   19  A    between atoms: _51  and  _52
REMARK   20  A    between atoms: _51  and  _54
REMARK   21  A    between atoms: _54  and  _55
REMARK   22  A    between atoms: _55  and  _56
REMARK   23  A    between atoms: _56  and  _57
REMARK   24  A    between atoms: _66  and  _68
REMARK   25  A    between atoms: _68  and  _69
REMARK   26  A    between atoms: _68  and  _71
REMARK   27  A    between atoms: _71  and  _72
REMARK   28  A    between atoms: _75  and  _77
REMARK   29  A    between atoms: _77  and  _78
REMARK   30  A    between atoms: _80  and  _82
REMARK   31  A    between atoms: _82  and  _83
REMARK   32  A    between atoms: _82  and  _85
REMARK   33  A    between atoms: _85  and  _86
REMARK   34  A    between atoms: _86  and  _87
REMARK   35  A    between atoms: _87  and  _88
REMARK   36  A    between atoms: _97  and  _99
REMARK   37  A    between atoms: _99  and  _100
REMARK   38  A    between atoms: _99  and  _102
REMARK   39  A    between atoms: _102  and  _103
REMARK   40  A    between atoms: _103  and  _104
REMARK   41  A    between atoms: _104  and  _105
REMARK   42  A    between atoms: _114  and  _116
REMARK   43  A    between atoms: _116  and  _117
REMARK   44  A    between atoms: _116  and  _119
REMARK   45  A    between atoms: _119  and  _120
REMARK   46  A    between atoms: _120  and  _121
REMARK   47  A    between atoms: _125  and  _126
REMARK   48  A    between atoms: _131  and  _133
REMARK   49  A    between atoms: _133  and  _134
REMARK   50  A    between atoms: _133  and  _136
REMARK   51  A    between atoms: _139  and  _141
REMARK   52  A    between atoms: _141  and  _142
REMARK   53  A    between atoms: _141  and  _144
REMARK   54  A    between atoms: _144  and  _145
REMARK   55  A    between atoms: _150  and  _151
REMARK   56  A    between atoms: _153  and  _155
REMARK   57  A    between atoms: _155  and  _156
REMARK   58  A    between atoms: _158  and  _160
REMARK   59  A    between atoms: _160  and  _161
REMARK   60  A    between atoms: _160  and  _163
REMARK   61  A    between atoms: _163  and  _164
REMARK   62  A    between atoms: _167  and  _169
REMARK   63  A    between atoms: _169  and  _170
REMARK   64  A    between atoms: _169  and  _172
REMARK   65  A    between atoms: _172  and  _173
REMARK   66  A    between atoms: _176  and  _178
REMARK   67  A    between atoms: _178  and  _179
REMARK   68  A    between atoms: _178  and  _181
REMARK   69  A    between atoms: _181  and  _182
REMARK   70  A    between atoms: _187  and  _189
REMARK   71  A    between atoms: _189  and  _190
REMARK   72  A    between atoms: _189  and  _192
REMARK   73  A    between atoms: _192  and  _193
REMARK   74  A    between atoms: _196  and  _198
REMARK   75  A    between atoms: _198  and  _199
REMARK   76  A    between atoms: _198  and  _201
REMARK   77  A    between atoms: _201  and  _202
REMARK   78  A    between atoms: _202  and  _203
REMARK   79  A    between atoms: _208  and  _210
REMARK   80  A    between atoms: _210  and  _211
REMARK   81  A    between atoms: _210  and  _213
REMARK   82  A    between atoms: _213  and  _214
REMARK   83  A    between atoms: _217  and  _219
REMARK   84  A    between atoms: _219  and  _220
REMARK   85  A    between atoms: _219  and  _222
REMARK   86  A    between atoms: _222  and  _223
REMARK   87  A    between atoms: _228  and  _230
REMARK   88  A    between atoms: _230  and  _231
REMARK   89  A    between atoms: _234  and  _236
REMARK   90  A    between atoms: _236  and  _237
REMARK   91  A    between atoms: _239  and  _241
REMARK   92  A    between atoms: _241  and  _242
REMARK   93  A    between atoms: _244  and  _246
REMARK   94  A    between atoms: _246  and  _247
REMARK   95  A    between atoms: _246  and  _249
REMARK   96  A    between atoms: _249  and  _250
REMARK   97  A    between atoms: _253  and  _255
REMARK   98  A    between atoms: _255  and  _256
REMARK   99  A    between atoms: _255  and  _258
REMARK  100  A    between atoms: _258  and  _259
REMARK  101  A    between atoms: _262  and  _264
REMARK  102  A    between atoms: _264  and  _265
REMARK  103  A    between atoms: _264  and  _267
REMARK  104  A    between atoms: _267  and  _268
REMARK  105  A    between atoms: _273  and  _275
REMARK  106  A    between atoms: _275  and  _276
REMARK  107  A    between atoms: _275  and  _278
REMARK  108  A    between atoms: _278  and  _279
REMARK  109  A    between atoms: _282  and  _284
REMARK  110  A    between atoms: _284  and  _285
REMARK  111  A    between atoms: _284  and  _287
REMARK  112  A    between atoms: _287  and  _288
REMARK  113  A    between atoms: _288  and  _289
REMARK  114  A    between atoms: _292  and  _294
REMARK  115  A    between atoms: _294  and  _295
REMARK  116  A    between atoms: _294  and  _297
REMARK  117  A    between atoms: _300  and  _302
REMARK  118  A    between atoms: _302  and  _303
REMARK  119  A    between atoms: _302  and  _305
REMARK  120  A    between atoms: _305  and  _306
REMARK  121  A    between atoms: _311  and  _313
REMARK  122  A    between atoms: _313  and  _314
REMARK  123  A    between atoms: _313  and  _316
REMARK  124  A    between atoms: _316  and  _317
REMARK  125  A    between atoms: _320  and  _322
REMARK  126  A    between atoms: _322  and  _323
REMARK  127  A    between atoms: _322  and  _325
REMARK  128  A    between atoms: _325  and  _326
REMARK  129  A    between atoms: _328  and  _330
REMARK  130  A    between atoms: _330  and  _331
REMARK  131  A    between atoms: _330  and  _333
REMARK  132  A    between atoms: _333  and  _334
REMARK  133  A    between atoms: _339  and  _341
REMARK  134  A    between atoms: _341  and  _342
REMARK  135  A    between atoms: _341  and  _344
REMARK  136  A    between atoms: _347  and  _349
REMARK  137  A    between atoms: _349  and  _350
REMARK  138  A    between atoms: _349  and  _352
REMARK  139  A    between atoms: _352  and  _353
REMARK  140  A    between atoms: _358  and  _360
REMARK  141  A    between atoms: _360  and  _361
REMARK  142  A    between atoms: _360  and  _363
REMARK  143  A    between atoms: _363  and  _364
REMARK  144  A    between atoms: _364  and  _365
REMARK  145  A    between atoms: _365  and  _366
REMARK  146  A    between atoms: _375  and  _377
REMARK  147  A    between atoms: _377  and  _378
REMARK  148  A    between atoms: _377  and  _380
REMARK  149  A    between atoms: _380  and  _381
REMARK  150  A    between atoms: _381  and  _382
REMARK  151  A    between atoms: _385  and  _387
REMARK  152  A    between atoms: _387  and  _388
REMARK  153  A    between atoms: _387  and  _390
REMARK  154  A    between atoms: _390  and  _391
REMARK  155  A    between atoms: _397  and  _399
REMARK  156  A    between atoms: _399  and  _400
REMARK  157  A    between atoms: _399  and  _402
REMARK  158  A    between atoms: _402  and  _403
REMARK  159  A    between atoms: _403  and  _404
REMARK  160  A    between atoms: _404  and  _405
REMARK  161  A    between atoms: _414  and  _416
REMARK  162  A    between atoms: _416  and  _417
REMARK  163  A    between atoms: _416  and  _419
REMARK  164  A    between atoms: _419  and  _420
REMARK  165  A    between atoms: _420  and  _421
REMARK  166  A    between atoms: _421  and  _422
REMARK  167  A    between atoms: _431  and  _433
REMARK  168  A    between atoms: _433  and  _434
REMARK  169  A    between atoms: _433  and  _436
REMARK  170  A    between atoms: _436  and  _437
REMARK  171  A    between atoms: _442  and  _444
REMARK  172  A    between atoms: _444  and  _445
REMARK  173  A    between atoms: _444  and  _447
REMARK  174  A    between atoms: _447  and  _448
REMARK  175  A    between atoms: _450  and  _452
REMARK  176  A    between atoms: _452  and  _453
REMARK  177  A    between atoms: _452  and  _455
REMARK  178  A    between atoms: _455  and  _456
REMARK  179  A    between atoms: _459  and  _461
REMARK  180  A    between atoms: _461  and  _462
REMARK  181  A    between atoms: _461  and  _464
REMARK  182  A    between atoms: _464  and  _465
REMARK  183  A    between atoms: _468  and  _470
REMARK  184  A    between atoms: _470  and  _471
REMARK  185  A    between atoms: _470  and  _473
REMARK  186  A    between atoms: _476  and  _478
REMARK  187  A    between atoms: _478  and  _479
REMARK  188  A    between atoms: _481  and  _483
REMARK  189  A    between atoms: _483  and  _484
REMARK  190  A    between atoms: _483  and  _486
REMARK  191  A    between atoms: _486  and  _487
REMARK  192  A    between atoms: _490  and  _492
REMARK  193  A    between atoms: _492  and  _493
REMARK  194  A    between atoms: _495  and  _497
REMARK  195  A    between atoms: _497  and  _498
REMARK  196  A    between atoms: _497  and  _500
REMARK  197  A    between atoms: _500  and  _501
REMARK  198  A    between atoms: _504  and  _506
REMARK  199  A    between atoms: _506  and  _507
REMARK  200  A    between atoms: _506  and  _509
REMARK  201  A    between atoms: _509  and  _510
REMARK  202  A    between atoms: _515  and  _516
REMARK  203  A    between atoms: _518  and  _520
REMARK  204  A    between atoms: _520  and  _521
REMARK  205  A    between atoms: _520  and  _523
REMARK  206  A    between atoms: _523  and  _524
REMARK  207  A    between atoms: _529  and  _531
REMARK  208  A    between atoms: _531  and  _532
REMARK  209  A    between atoms: _531  and  _534
REMARK  210  A    between atoms: _537  and  _539
REMARK  211  A    between atoms: _539  and  _540
REMARK  212  A    between atoms: _543  and  _545
REMARK  213  A    between atoms: _545  and  _546
REMARK  214  A    between atoms: _545  and  _548
REMARK  215  A    between atoms: _548  and  _549
REMARK  216  A    between atoms: _552  and  _554
REMARK  217  A    between atoms: _554  and  _555
REMARK  218  A    between atoms: _554  and  _557
REMARK  219  A    between atoms: _557  and  _558
REMARK  220  A    between atoms: _558  and  _559
REMARK  221  A    between atoms: _559  and  _560
REMARK  222  A    between atoms: _569  and  _571
REMARK  223  A    between atoms: _571  and  _572
REMARK  224  A    between atoms: _571  and  _574
REMARK  225  A    between atoms: _574  and  _575
REMARK  226  A    between atoms: _578  and  _580
REMARK  227  A    between atoms: _580  and  _581
REMARK  228  A    between atoms: _584  and  _586
REMARK  229  A    between atoms: _586  and  _587
REMARK  230  A    between atoms: _590  and  _592
REMARK  231  A    between atoms: _592  and  _593
REMARK  232  A    between atoms: _592  and  _595
REMARK  233  A    between atoms: _595  and  _596
REMARK  234  A    between atoms: _596  and  _597
REMARK                            x       y       z     vdW  Elec       q    Type
REMARK                         _______ _______ _______ _____ _____    ______ ____
ROOT
ATOM      1  CA  ARG A   4      19.919   3.613  47.600  0.00  0.00    +0.149 C 
ENDROOT
BRANCH   1   3
ATOM      2  C   LEU A   3      20.866   5.716  46.944  0.00  0.00    +0.241 C 
ATOM      3  N   ARG A   4      19.892   5.055  47.540  0.00  0.00    -0.297 N 
ATOM      4  H   ARG A   4      19.100   5.576  47.969  0.00  0.00    +0.150 HD
ATOM      5  O   LEU A   3      21.891   5.151  46.509  0.00  0.00    -0.273 OA
BRANCH   2   6
ATOM      6  CA  LEU A   3      20.636   7.218  46.775  0.00  0.00    +0.149 C 
BRANCH   6   8
ATOM      7  C   ALA A   2      18.898   7.072  45.069  0.00  0.00    +0.241 C 
ATOM      8  N   LEU A   3      19.291   7.463  46.278  0.00  0.00    -0.297 N 
ATOM      9  H   LEU A   3      18.613   7.961  46.889  0.00  0.00    +0.150 HD
ATOM     10  O   ALA A   2      19.628   6.434  44.292  0.00  0.00    -0.273 OA
BRANCH   7  11
ATOM     11  CA  ALA A   2      17.450   7.391  44.700  0.00  0.00    +0.149 C 
ATOM     12  CB  ALA A   2      17.332   8.784  44.125  0.00  0.00    +0.031 C 
BRANCH  11  15
ATOM     13  C   VAL A   1      16.381   6.038  46.434  0.00  0.00    +0.238 C 
ATOM     14  O   VAL A   1      17.023   5.055  46.079  0.00  0.00    -0.274 OA
ATOM     15  N   ALA A   2      16.535   7.219  45.844  0.00  0.00    -0.297 N 
ATOM     16  H   ALA A   2      16.000   8.038  46.196  0.00  0.00    +0.150 HD
BRANCH  13  17
ATOM     17  CA  VAL A   1      15.393   5.943  47.615  0.00  0.00    +0.145 C 
BRANCH  17  18
ATOM     18  CB  VAL A   1      13.931   5.548  47.146  0.00  0.00    +0.025 C 
ATOM     19  CG2 VAL A   1      13.012   5.324  48.357  0.00  0.00    +0.002 C 
ATOM     20  CG1 VAL A   1      13.934   4.293  46.237  0.00  0.00    +0.002 C 
ENDBRANCH  17  18
BRANCH  17  21
ATOM     21  N   VAL A   1      15.403   7.184  48.404  0.00  0.00    -0.238 NA
ATOM     22  H   VAL A   1      14.581   7.819  48.354  0.00  0.00    +0.142 HD
ENDBRANCH  17  21
ENDBRANCH  13  17
ENDBRANCH  11  15
ENDBRANCH   7  11
ENDBRANCH   6   8
BRANCH   6  23
ATOM     23  CB  LEU A   3      20.846   7.958  48.096  0.00  0.00    +0.029 C 
BRANCH  23  24
ATOM     24  CG  LEU A   3      22.259   8.320  48.517  0.00  0.00    +0.002 C 
ATOM     25  CD2 LEU A   3      22.238   9.207  49.781  0.00  0.00    +0.000 C 
ATOM     26  CD1 LEU A   3      23.000   9.050  47.359  0.00  0.00    +0.000 C 
ENDBRANCH  23  24
ENDBRANCH   6  23
ENDBRANCH   2   6
ENDBRANCH   1   3
BRANCH   1  27
ATOM     27  C   ARG A   4      19.992   2.925  46.228  0.00  0.00    +0.241 C 
ATOM     28  O   ARG A   4      20.793   1.992  46.059  0.00  0.00    -0.273 OA
ATOM     29  N   ASP A   5      19.146   3.329  45.277  0.00  0.00    -0.297 N 
ATOM     30  H   ASP A   5      18.426   4.047  45.493  0.00  0.00    +0.150 HD
BRANCH  29  31
ATOM     31  CA  ASP A   5      19.233   2.753  43.909  0.00  0.00    +0.160 C 
BRANCH  31  32
ATOM     32  C   ASP A   5      20.656   2.903  43.322  0.00  0.00    +0.241 C 
ATOM     33  N   ALA A   6      21.266   4.076  43.495  0.00  0.00    -0.298 N 
ATOM     34  H   ALA A   6      20.772   4.850  43.983  0.00  0.00    +0.150 HD
ATOM     35  O   ASP A   5      21.190   1.978  42.709  0.00  0.00    -0.273 OA
BRANCH  33  36
ATOM     36  CA  ALA A   6      22.640   4.279  42.997  0.00  0.00    +0.137 C 
ATOM     37  CB  ALA A   6      23.085   5.755  43.139  0.00  0.00    +0.030 C 
BRANCH  36  38
ATOM     38  C   ALA A   6      23.627   3.333  43.708  0.00  0.00    +0.227 C 
ATOM     39  O   ALA A   6      24.483   2.731  43.056  0.00  0.00    -0.286 OA
ENDBRANCH  36  38
ENDBRANCH  33  36
ENDBRANCH  31  32
BRANCH  31  40
ATOM     40  CB  ASP A   5      18.253   3.415  42.929  0.00  0.00    +0.143 C 
BRANCH  40  41
ATOM     41  CG  ASP A   5      16.786   3.204  43.290  0.00  0.00    +0.367 C 
ATOM     42  OD2 ASP A   5      16.419   2.145  43.867  0.00  0.00    -0.246 OA
ATOM     43  OD1 ASP A   5      15.993   4.134  42.984  0.00  0.00    -0.246 OA
ENDBRANCH  40  41
ENDBRANCH  31  40
ENDBRANCH  29  31
ENDBRANCH   1  27
BRANCH   1  44
ATOM     44  CB  ARG A   4      18.698   3.087  48.315  0.00  0.00    +0.033 C 
BRANCH  44  45
ATOM     45  CG  ARG A   4      18.671   1.590  48.364  0.00  0.00    +0.045 C 
BRANCH  45  46
ATOM     46  CD  ARG A   4      17.334   1.152  48.742  0.00  0.00    +0.174 C 
BRANCH  46  47
ATOM     47  NE  ARG A   4      17.192  -0.300  48.805  0.00  0.00    -0.265 N 
ATOM     48  CZ  ARG A   4      16.889  -0.999  49.901  0.00  0.00    +0.342 C 
ATOM     49  NH2 ARG A   4      16.758  -0.425  51.095  0.00  0.00    -0.292 N 
ATOM     50 HH21 ARG A   4      16.521  -1.003  51.927  0.00  0.00    +0.255 HD
ATOM     51 HH22 ARG A   4      16.893   0.601  51.196  0.00  0.00    +0.255 HD
ATOM     52  NH1 ARG A   4      16.723  -2.310  49.802  0.00  0.00    -0.292 N 
ATOM     53 HH11 ARG A   4      16.487  -2.869  50.646  0.00  0.00    +0.255 HD
ATOM     54 HH12 ARG A   4      16.829  -2.779  48.880  0.00  0.00    +0.255 HD
ATOM     55  HE  ARG A   4      17.339  -0.833  47.924  0.00  0.00    +0.259 HD
ENDBRANCH  46  47
ENDBRANCH  45  46
ENDBRANCH  44  45
ENDBRANCH   1  44
TORSDOF 21
REMARK  Name = ../refined-set-2016/2xb8/2xb8_pocket.pdb
REMARK  234 active torsions:
REMARK  status: ('A' for Active; 'I' for Inactive)
REMARK    1  A    between atoms: _1  and  _3
REMARK    2  A    between atoms: _3  and  _4
REMARK    3  A    between atoms: _3  and  _6
REMARK    4  A    between atoms: _6  and  _7
REMARK    5  A    between atoms: _12  and  _14
REMARK    6  A    between atoms: _14  and  _15
REMARK    7  A    between atoms: _18  and  _19
REMARK    8  A    between atoms: _24  and  _26
REMARK    9  A    between atoms: _26  and  _27
REMARK   10  A    between atoms: _26  and  _29
REMARK   11  A    between atoms: _29  and  _30
REMARK   12  A    between atoms: _35  and  _37
REMARK   13  A    between atoms: _37  and  _38
REMARK   14  A    between atoms: _37  and  _40
REMARK   15  A    between atoms: _40  and  _41
REMARK   16  A    between atoms: _44  and  _46
REMARK   17  A    between atoms: _46  and  _47
REMARK   18  A    between atoms: _49  and  _51
REMARK   19  A    between atoms: _51  and  _52
REMARK   20  A    between atoms: _51  and  _54
REMARK   21  A    between atoms: _54  and  _55
REMARK   22  A    between atoms: _55  and  _56
REMARK   23  A    between atoms: _56  and  _57
REMARK   24  A    between atoms: _66  and  _68
REMARK   25  A    between atoms: _68  and  _69
REMARK   26  A    between atoms: _68  and  _71
REMARK   27  A    between atoms: _71  and  _72
REMARK   28  A    between atoms: _75  and  _77
REMARK   29  A    between atoms: _77  and  _78
REMARK   30  A    between atoms: _80  and  _82
REMARK   31  A    between atoms: _82  and  _83
REMARK   32  A    between atoms: _82  and  _85
REMARK   33  A    between atoms: _85  and  _86
REMARK   34  A    between atoms: _86  and  _87
REMARK   35  A    between atoms: _87  and  _88
REMARK   36  A    between atoms: _97  and  _99
REMARK   37  A    between atoms: _99  and  _100
REMARK   38  A    between atoms: _99  and  _102
REMARK   39  A    between atoms: _102  and  _103
REMARK   40  A    between atoms: _103  and  _104
REMARK   41  A    between atoms: _104  and  _105
REMARK   42  A    between atoms: _114  and  _116
REMARK   43  A    between atoms: _116  and  _117
REMARK   44  A    between atoms: _116  and  _119
REMARK   45  A    between atoms: _119  and  _120
REMARK   46  A    between atoms: _120  and  _121
REMARK   47  A    between atoms: _125  and  _126
REMARK   48  A    between atoms: _131  and  _133
REMARK   49  A    between atoms: _133  and  _134
REMARK   50  A    between atoms: _133  and  _136
REMARK   51  A    between atoms: _139  and  _141
REMARK   52  A    between atoms: _141  and  _142
REMARK   53  A    between atoms: _141  and  _144
REMARK   54  A    between atoms: _144  and  _145
REMARK   55  A    between atoms: _150  and  _151
REMARK   56  A    between atoms: _153  and  _155
REMARK   57  A    between atoms: _155  and  _156
REMARK   58  A    between atoms: _158  and  _160
REMARK   59  A    between atoms: _160  and  _161
REMARK   60  A    between atoms: _160  and  _163
REMARK   61  A    between atoms: _163  and  _164
REMARK   62  A    between atoms: _167  and  _169
REMARK   63  A    between atoms: _169  and  _170
REMARK   64  A    between atoms: _169  and  _172
REMARK   65  A    between atoms: _172  and  _173
REMARK   66  A    between atoms: _176  and  _178
REMARK   67  A    between atoms: _178  and  _179
REMARK   68  A    between atoms: _178  and  _181
REMARK   69  A    between atoms: _181  and  _182
REMARK   70  A    between atoms: _187  and  _189
REMARK   71  A    between atoms: _189  and  _190
REMARK   72  A    between atoms: _189  and  _192
REMARK   73  A    between atoms: _192  and  _193
REMARK   74  A    between atoms: _196  and  _198
REMARK   75  A    between atoms: _198  and  _199
REMARK   76  A    between atoms: _198  and  _201
REMARK   77  A    between atoms: _201  and  _202
REMARK   78  A    between atoms: _202  and  _203
REMARK   79  A    between atoms: _208  and  _210
REMARK   80  A    between atoms: _210  and  _211
REMARK   81  A    between atoms: _210  and  _213
REMARK   82  A    between atoms: _213  and  _214
REMARK   83  A    between atoms: _217  and  _219
REMARK   84  A    between atoms: _219  and  _220
REMARK   85  A    between atoms: _219  and  _222
REMARK   86  A    between atoms: _222  and  _223
REMARK   87  A    between atoms: _228  and  _230
REMARK   88  A    between atoms: _230  and  _231
REMARK   89  A    between atoms: _234  and  _236
REMARK   90  A    between atoms: _236  and  _237
REMARK   91  A    between atoms: _239  and  _241
REMARK   92  A    between atoms: _241  and  _242
REMARK   93  A    between atoms: _244  and  _246
REMARK   94  A    between atoms: _246  and  _247
REMARK   95  A    between atoms: _246  and  _249
REMARK   96  A    between atoms: _249  and  _250
REMARK   97  A    between atoms: _253  and  _255
REMARK   98  A    between atoms: _255  and  _256
REMARK   99  A    between atoms: _255  and  _258
REMARK  100  A    between atoms: _258  and  _259
REMARK  101  A    between atoms: _262  and  _264
REMARK  102  A    between atoms: _264  and  _265
REMARK  103  A    between atoms: _264  and  _267
REMARK  104  A    between atoms: _267  and  _268
REMARK  105  A    between atoms: _273  and  _275
REMARK  106  A    between atoms: _275  and  _276
REMARK  107  A    between atoms: _275  and  _278
REMARK  108  A    between atoms: _278  and  _279
REMARK  109  A    between atoms: _282  and  _284
REMARK  110  A    between atoms: _284  and  _285
REMARK  111  A    between atoms: _284  and  _287
REMARK  112  A    between atoms: _287  and  _288
REMARK  113  A    between atoms: _288  and  _289
REMARK  114  A    between atoms: _292  and  _294
REMARK  115  A    between atoms: _294  and  _295
REMARK  116  A    between atoms: _294  and  _297
REMARK  117  A    between atoms: _300  and  _302
REMARK  118  A    between atoms: _302  and  _303
REMARK  119  A    between atoms: _302  and  _305
REMARK  120  A    between atoms: _305  and  _306
REMARK  121  A    between atoms: _311  and  _313
REMARK  122  A    between atoms: _313  and  _314
REMARK  123  A    between atoms: _313  and  _316
REMARK  124  A    between atoms: _316  and  _317
REMARK  125  A    between atoms: _320  and  _322
REMARK  126  A    between atoms: _322  and  _323
REMARK  127  A    between atoms: _322  and  _325
REMARK  128  A    between atoms: _325  and  _326
REMARK  129  A    between atoms: _328  and  _330
REMARK  130  A    between atoms: _330  and  _331
REMARK  131  A    between atoms: _330  and  _333
REMARK  132  A    between atoms: _333  and  _334
REMARK  133  A    between atoms: _339  and  _341
REMARK  134  A    between atoms: _341  and  _342
REMARK  135  A    between atoms: _341  and  _344
REMARK  136  A    between atoms: _347  and  _349
REMARK  137  A    between atoms: _349  and  _350
REMARK  138  A    between atoms: _349  and  _352
REMARK  139  A    between atoms: _352  and  _353
REMARK  140  A    between atoms: _358  and  _360
REMARK  141  A    between atoms: _360  and  _361
REMARK  142  A    between atoms: _360  and  _363
REMARK  143  A    between atoms: _363  and  _364
REMARK  144  A    between atoms: _364  and  _365
REMARK  145  A    between atoms: _365  and  _366
REMARK  146  A    between atoms: _375  and  _377
REMARK  147  A    between atoms: _377  and  _378
REMARK  148  A    between atoms: _377  and  _380
REMARK  149  A    between atoms: _380  and  _381
REMARK  150  A    between atoms: _381  and  _382
REMARK  151  A    between atoms: _385  and  _387
REMARK  152  A    between atoms: _387  and  _388
REMARK  153  A    between atoms: _387  and  _390
REMARK  154  A    between atoms: _390  and  _391
REMARK  155  A    between atoms: _397  and  _399
REMARK  156  A    between atoms: _399  and  _400
REMARK  157  A    between atoms: _399  and  _402
REMARK  158  A    between atoms: _402  and  _403
REMARK  159  A    between atoms: _403  and  _404
REMARK  160  A    between atoms: _404  and  _405
REMARK  161  A    between atoms: _414  and  _416
REMARK  162  A    between atoms: _416  and  _417
REMARK  163  A    between atoms: _416  and  _419
REMARK  164  A    between atoms: _419  and  _420
REMARK  165  A    between atoms: _420  and  _421
REMARK  166  A    between atoms: _421  and  _422
REMARK  167  A    between atoms: _431  and  _433
REMARK  168  A    between atoms: _433  and  _434
REMARK  169  A    between atoms: _433  and  _436
REMARK  170  A    between atoms: _436  and  _437
REMARK  171  A    between atoms: _442  and  _444
REMARK  172  A    between atoms: _444  and  _445
REMARK  173  A    between atoms: _444  and  _447
REMARK  174  A    between atoms: _447  and  _448
REMARK  175  A    between atoms: _450  and  _452
REMARK  176  A    between atoms: _452  and  _453
REMARK  177  A    between atoms: _452  and  _455
REMARK  178  A    between atoms: _455  and  _456
REMARK  179  A    between atoms: _459  and  _461
REMARK  180  A    between atoms: _461  and  _462
REMARK  181  A    between atoms: _461  and  _464
REMARK  182  A    between atoms: _464  and  _465
REMARK  183  A    between atoms: _468  and  _470
REMARK  184  A    between atoms: _470  and  _471
REMARK  185  A    between atoms: _470  and  _473
REMARK  186  A    between atoms: _476  and  _478
REMARK  187  A    between atoms: _478  and  _479
REMARK  188  A    between atoms: _481  and  _483
REMARK  189  A    between atoms: _483  and  _484
REMARK  190  A    between atoms: _483  and  _486
REMARK  191  A    between atoms: _486  and  _487
REMARK  192  A    between atoms: _490  and  _492
REMARK  193  A    between atoms: _492  and  _493
REMARK  194  A    between atoms: _495  and  _497
REMARK  195  A    between atoms: _497  and  _498
REMARK  196  A    between atoms: _497  and  _500
REMARK  197  A    between atoms: _500  and  _501
REMARK  198  A    between atoms: _504  and  _506
REMARK  199  A    between atoms: _506  and  _507
REMARK  200  A    between atoms: _506  and  _509
REMARK  201  A    between atoms: _509  and  _510
REMARK  202  A    between atoms: _515  and  _516
REMARK  203  A    between atoms: _518  and  _520
REMARK  204  A    between atoms: _520  and  _521
REMARK  205  A    between atoms: _520  and  _523
REMARK  206  A    between atoms: _523  and  _524
REMARK  207  A    between atoms: _529  and  _531
REMARK  208  A    between atoms: _531  and  _532
REMARK  209  A    between atoms: _531  and  _534
REMARK  210  A    between atoms: _537  and  _539
REMARK  211  A    between atoms: _539  and  _540
REMARK  212  A    between atoms: _543  and  _545
REMARK  213  A    between atoms: _545  and  _546
REMARK  214  A    between atoms: _545  and  _548
REMARK  215  A    between atoms: _548  and  _549
REMARK  216  A    between atoms: _552  and  _554
REMARK  217  A    between atoms: _554  and  _555
REMARK  218  A    between atoms: _554  and  _557
REMARK  219  A    between atoms: _557  and  _558
REMARK  220  A    between atoms: _558  and  _559
REMARK  221  A    between atoms: _559  and  _560
REMARK  222  A    between atoms: _569  and  _571
REMARK  223  A    between atoms: _571  and  _572
REMARK  224  A    between atoms: _571  and  _574
REMARK  225  A    between atoms: _574  and  _575
REMARK  226  A    between atoms: _578  and  _580
REMARK  227  A    between atoms: _580  and  _581
REMARK  228  A    between atoms: _584  and  _586
REMARK  229  A    between atoms: _586  and  _587
REMARK  230  A    between atoms: _590  and  _592
REMARK  231  A    between atoms: _592  and  _593
REMARK  232  A    between atoms: _592  and  _595
REMARK  233  A    between atoms: _595  and  _596
REMARK  234  A    between atoms: _596  and  _597
REMARK                            x       y       z     vdW  Elec       q    Type
REMARK                         _______ _______ _______ _____ _____    ______ ____
ROOT
ATOM      1  C   ALA A   1      23.649  -1.449  43.527  0.00  0.00    +0.238 C 
ATOM      2  O   ALA A   1      23.886  -2.660  43.364  0.00  0.00    -0.274 OA
ATOM      3  N   GLU A   2      24.130  -0.500  42.719  0.00  0.00    -0.298 N 
ATOM      4  H   GLU A   2      23.865   0.489  42.901  0.00  0.00    +0.150 HD
ENDROOT
BRANCH   1   5
ATOM      5  CA  ALA A   1      22.777  -0.972  44.716  0.00  0.00    +0.145 C 
ATOM      6  CB  ALA A   1      21.307  -1.177  44.427  0.00  0.00    +0.028 C 
BRANCH   5   7
ATOM      7  N   ALA A   1      23.034   0.418  45.090  0.00  0.00    -0.238 NA
ATOM      8  H   ALA A   1      22.259   1.109  45.029  0.00  0.00    +0.142 HD
ENDBRANCH   5   7
ENDBRANCH   1   5
BRANCH   3   9
ATOM      9  CA  GLU A   2      25.023  -0.795  41.576  0.00  0.00    +0.137 C 
BRANCH   9  10
ATOM     10  C   GLU A   2      26.474  -1.065  41.965  0.00  0.00    +0.227 C 
ATOM     11  O   GLU A   2      27.249  -1.492  41.133  0.00  0.00    -0.286 OA
ENDBRANCH   9  10
BRANCH   9  12
ATOM     12  CB  GLU A   2      25.102   0.406  40.619  0.00  0.00    +0.039 C 
BRANCH  12  13
ATOM     13  CG  GLU A   2      24.068   0.565  39.566  0.00  0.00    +0.116 C 
BRANCH  13  14
ATOM     14  CD  GLU A   2      24.461   1.714  38.615  0.00  0.00    +0.365 C 
ATOM     15  OE2 GLU A   2      23.961   2.842  38.750  0.00  0.00    -0.246 OA
ATOM     16  OE1 GLU A   2      25.314   1.512  37.741  0.00  0.00    -0.246 OA
ENDBRANCH  13  14
ENDBRANCH  12  13
ENDBRANCH   9  12
ENDBRANCH   3   9
TORSDOF 7
REMARK  Name = ../refined-set-2016/2xb8/2xb8_pocket.pdb
REMARK  234 active torsions:
REMARK  status: ('A' for Active; 'I' for Inactive)
REMARK    1  A    between atoms: _1  and  _3
REMARK    2  A    between atoms: _3  and  _4
REMARK    3  A    between atoms: _3  and  _6
REMARK    4  A    between atoms: _6  and  _7
REMARK    5  A    between atoms: _12  and  _14
REMARK    6  A    between atoms: _14  and  _15
REMARK    7  A    between atoms: _18  and  _19
REMARK    8  A    between atoms: _24  and  _26
REMARK    9  A    between atoms: _26  and  _27
REMARK   10  A    between atoms: _26  and  _29
REMARK   11  A    between atoms: _29  and  _30
REMARK   12  A    between atoms: _35  and  _37
REMARK   13  A    between atoms: _37  and  _38
REMARK   14  A    between atoms: _37  and  _40
REMARK   15  A    between atoms: _40  and  _41
REMARK   16  A    between atoms: _44  and  _46
REMARK   17  A    between atoms: _46  and  _47
REMARK   18  A    between atoms: _49  and  _51
REMARK   19  A    between atoms: _51  and  _52
REMARK   20  A    between atoms: _51  and  _54
REMARK   21  A    between atoms: _54  and  _55
REMARK   22  A    between atoms: _55  and  _56
REMARK   23  A    between atoms: _56  and  _57
REMARK   24  A    between atoms: _66  and  _68
REMARK   25  A    between atoms: _68  and  _69
REMARK   26  A    between atoms: _68  and  _71
REMARK   27  A    between atoms: _71  and  _72
REMARK   28  A    between atoms: _75  and  _77
REMARK   29  A    between atoms: _77  and  _78
REMARK   30  A    between atoms: _80  and  _82
REMARK   31  A    between atoms: _82  and  _83
REMARK   32  A    between atoms: _82  and  _85
REMARK   33  A    between atoms: _85  and  _86
REMARK   34  A    between atoms: _86  and  _87
REMARK   35  A    between atoms: _87  and  _88
REMARK   36  A    between atoms: _97  and  _99
REMARK   37  A    between atoms: _99  and  _100
REMARK   38  A    between atoms: _99  and  _102
REMARK   39  A    between atoms: _102  and  _103
REMARK   40  A    between atoms: _103  and  _104
REMARK   41  A    between atoms: _104  and  _105
REMARK   42  A    between atoms: _114  and  _116
REMARK   43  A    between atoms: _116  and  _117
REMARK   44  A    between atoms: _116  and  _119
REMARK   45  A    between atoms: _119  and  _120
REMARK   46  A    between atoms: _120  and  _121
REMARK   47  A    between atoms: _125  and  _126
REMARK   48  A    between atoms: _131  and  _133
REMARK   49  A    between atoms: _133  and  _134
REMARK   50  A    between atoms: _133  and  _136
REMARK   51  A    between atoms: _139  and  _141
REMARK   52  A    between atoms: _141  and  _142
REMARK   53  A    between atoms: _141  and  _144
REMARK   54  A    between atoms: _144  and  _145
REMARK   55  A    between atoms: _150  and  _151
REMARK   56  A    between atoms: _153  and  _155
REMARK   57  A    between atoms: _155  and  _156
REMARK   58  A    between atoms: _158  and  _160
REMARK   59  A    between atoms: _160  and  _161
REMARK   60  A    between atoms: _160  and  _163
REMARK   61  A    between atoms: _163  and  _164
REMARK   62  A    between atoms: _167  and  _169
REMARK   63  A    between atoms: _169  and  _170
REMARK   64  A    between atoms: _169  and  _172
REMARK   65  A    between atoms: _172  and  _173
REMARK   66  A    between atoms: _176  and  _178
REMARK   67  A    between atoms: _178  and  _179
REMARK   68  A    between atoms: _178  and  _181
REMARK   69  A    between atoms: _181  and  _182
REMARK   70  A    between atoms: _187  and  _189
REMARK   71  A    between atoms: _189  and  _190
REMARK   72  A    between atoms: _189  and  _192
REMARK   73  A    between atoms: _192  and  _193
REMARK   74  A    between atoms: _196  and  _198
REMARK   75  A    between atoms: _198  and  _199
REMARK   76  A    between atoms: _198  and  _201
REMARK   77  A    between atoms: _201  and  _202
REMARK   78  A    between atoms: _202  and  _203
REMARK   79  A    between atoms: _208  and  _210
REMARK   80  A    between atoms: _210  and  _211
REMARK   81  A    between atoms: _210  and  _213
REMARK   82  A    between atoms: _213  and  _214
REMARK   83  A    between atoms: _217  and  _219
REMARK   84  A    between atoms: _219  and  _220
REMARK   85  A    between atoms: _219  and  _222
REMARK   86  A    between atoms: _222  and  _223
REMARK   87  A    between atoms: _228  and  _230
REMARK   88  A    between atoms: _230  and  _231
REMARK   89  A    between atoms: _234  and  _236
REMARK   90  A    between atoms: _236  and  _237
REMARK   91  A    between atoms: _239  and  _241
REMARK   92  A    between atoms: _241  and  _242
REMARK   93  A    between atoms: _244  and  _246
REMARK   94  A    between atoms: _246  and  _247
REMARK   95  A    between atoms: _246  and  _249
REMARK   96  A    between atoms: _249  and  _250
REMARK   97  A    between atoms: _253  and  _255
REMARK   98  A    between atoms: _255  and  _256
REMARK   99  A    between atoms: _255  and  _258
REMARK  100  A    between atoms: _258  and  _259
REMARK  101  A    between atoms: _262  and  _264
REMARK  102  A    between atoms: _264  and  _265
REMARK  103  A    between atoms: _264  and  _267
REMARK  104  A    between atoms: _267  and  _268
REMARK  105  A    between atoms: _273  and  _275
REMARK  106  A    between atoms: _275  and  _276
REMARK  107  A    between atoms: _275  and  _278
REMARK  108  A    between atoms: _278  and  _279
REMARK  109  A    between atoms: _282  and  _284
REMARK  110  A    between atoms: _284  and  _285
REMARK  111  A    between atoms: _284  and  _287
REMARK  112  A    between atoms: _287  and  _288
REMARK  113  A    between atoms: _288  and  _289
REMARK  114  A    between atoms: _292  and  _294
REMARK  115  A    between atoms: _294  and  _295
REMARK  116  A    between atoms: _294  and  _297
REMARK  117  A    between atoms: _300  and  _302
REMARK  118  A    between atoms: _302  and  _303
REMARK  119  A    between atoms: _302  and  _305
REMARK  120  A    between atoms: _305  and  _306
REMARK  121  A    between atoms: _311  and  _313
REMARK  122  A    between atoms: _313  and  _314
REMARK  123  A    between atoms: _313  and  _316
REMARK  124  A    between atoms: _316  and  _317
REMARK  125  A    between atoms: _320  and  _322
REMARK  126  A    between atoms: _322  and  _323
REMARK  127  A    between atoms: _322  and  _325
REMARK  128  A    between atoms: _325  and  _326
REMARK  129  A    between atoms: _328  and  _330
REMARK  130  A    between atoms: _330  and  _331
REMARK  131  A    between atoms: _330  and  _333
REMARK  132  A    between atoms: _333  and  _334
REMARK  133  A    between atoms: _339  and  _341
REMARK  134  A    between atoms: _341  and  _342
REMARK  135  A    between atoms: _341  and  _344
REMARK  136  A    between atoms: _347  and  _349
REMARK  137  A    between atoms: _349  and  _350
REMARK  138  A    between atoms: _349  and  _352
REMARK  139  A    between atoms: _352  and  _353
REMARK  140  A    between atoms: _358  and  _360
REMARK  141  A    between atoms: _360  and  _361
REMARK  142  A    between atoms: _360  and  _363
REMARK  143  A    between atoms: _363  and  _364
REMARK  144  A    between atoms: _364  and  _365
REMARK  145  A    between atoms: _365  and  _366
REMARK  146  A    between atoms: _375  and  _377
REMARK  147  A    between atoms: _377  and  _378
REMARK  148  A    between atoms: _377  and  _380
REMARK  149  A    between atoms: _380  and  _381
REMARK  150  A    between atoms: _381  and  _382
REMARK  151  A    between atoms: _385  and  _387
REMARK  152  A    between atoms: _387  and  _388
REMARK  153  A    between atoms: _387  and  _390
REMARK  154  A    between atoms: _390  and  _391
REMARK  155  A    between atoms: _397  and  _399
REMARK  156  A    between atoms: _399  and  _400
REMARK  157  A    between atoms: _399  and  _402
REMARK  158  A    between atoms: _402  and  _403
REMARK  159  A    between atoms: _403  and  _404
REMARK  160  A    between atoms: _404  and  _405
REMARK  161  A    between atoms: _414  and  _416
REMARK  162  A    between atoms: _416  and  _417
REMARK  163  A    between atoms: _416  and  _419
REMARK  164  A    between atoms: _419  and  _420
REMARK  165  A    between atoms: _420  and  _421
REMARK  166  A    between atoms: _421  and  _422
REMARK  167  A    between atoms: _431  and  _433
REMARK  168  A    between atoms: _433  and  _434
REMARK  169  A    between atoms: _433  and  _436
REMARK  170  A    between atoms: _436  and  _437
REMARK  171  A    between atoms: _442  and  _444
REMARK  172  A    between atoms: _444  and  _445
REMARK  173  A    between atoms: _444  and  _447
REMARK  174  A    between atoms: _447  and  _448
REMARK  175  A    between atoms: _450  and  _452
REMARK  176  A    between atoms: _452  and  _453
REMARK  177  A    between atoms: _452  and  _455
REMARK  178  A    between atoms: _455  and  _456
REMARK  179  A    between atoms: _459  and  _461
REMARK  180  A    between atoms: _461  and  _462
REMARK  181  A    between atoms: _461  and  _464
REMARK  182  A    between atoms: _464  and  _465
REMARK  183  A    between atoms: _468  and  _470
REMARK  184  A    between atoms: _470  and  _471
REMARK  185  A    between atoms: _470  and  _473
REMARK  186  A    between atoms: _476  and  _478
REMARK  187  A    between atoms: _478  and  _479
REMARK  188  A    between atoms: _481  and  _483
REMARK  189  A    between atoms: _483  and  _484
REMARK  190  A    between atoms: _483  and  _486
REMARK  191  A    between atoms: _486  and  _487
REMARK  192  A    between atoms: _490  and  _492
REMARK  193  A    between atoms: _492  and  _493
REMARK  194  A    between atoms: _495  and  _497
REMARK  195  A    between atoms: _497  and  _498
REMARK  196  A    between atoms: _497  and  _500
REMARK  197  A    between atoms: _500  and  _501
REMARK  198  A    between atoms: _504  and  _506
REMARK  199  A    between atoms: _506  and  _507
REMARK  200  A    between atoms: _506  and  _509
REMARK  201  A    between atoms: _509  and  _510
REMARK  202  A    between atoms: _515  and  _516
REMARK  203  A    between atoms: _518  and  _520
REMARK  204  A    between atoms: _520  and  _521
REMARK  205  A    between atoms: _520  and  _523
REMARK  206  A    between atoms: _523  and  _524
REMARK  207  A    between atoms: _529  and  _531
REMARK  208  A    between atoms: _531  and  _532
REMARK  209  A    between atoms: _531  and  _534
REMARK  210  A    between atoms: _537  and  _539
REMARK  211  A    between atoms: _539  and  _540
REMARK  212  A    between atoms: _543  and  _545
REMARK  213  A    between atoms: _545  and  _546
REMARK  214  A    between atoms: _545  and  _548
REMARK  215  A    between atoms: _548  and  _549
REMARK  216  A    between atoms: _552  and  _554
REMARK  217  A    between atoms: _554  and  _555
REMARK  218  A    between atoms: _554  and  _557
REMARK  219  A    between atoms: _557  and  _558
REMARK  220  A    between atoms: _558  and  _559
REMARK  221  A    between atoms: _559  and  _560
REMARK  222  A    between atoms: _569  and  _571
REMARK  223  A    between atoms: _571  and  _572
REMARK  224  A    between atoms: _571  and  _574
REMARK  225  A    between atoms: _574  and  _575
REMARK  226  A    between atoms: _578  and  _580
REMARK  227  A    between atoms: _580  and  _581
REMARK  228  A    between atoms: _584  and  _586
REMARK  229  A    between atoms: _586  and  _587
REMARK  230  A    between atoms: _590  and  _592
REMARK  231  A    between atoms: _592  and  _593
REMARK  232  A    between atoms: _592  and  _595
REMARK  233  A    between atoms: _595  and  _596
REMARK  234  A    between atoms: _596  and  _597
REMARK                            x       y       z     vdW  Elec       q    Type
REMARK                         _______ _______ _______ _____ _____    ______ ____
ROOT
ATOM      1  O   HOH     1      21.905   4.491  29.670  0.00  0.00    +0.000 OA
ENDROOT
TORSDOF 0
REMARK  Name = ../refined-set-2016/2xb8/2xb8_pocket.pdb
REMARK  234 active torsions:
REMARK  status: ('A' for Active; 'I' for Inactive)
REMARK    1  A    between atoms: _1  and  _3
REMARK    2  A    between atoms: _3  and  _4
REMARK    3  A    between atoms: _3  and  _6
REMARK    4  A    between atoms: _6  and  _7
REMARK    5  A    between atoms: _12  and  _14
REMARK    6  A    between atoms: _14  and  _15
REMARK    7  A    between atoms: _18  and  _19
REMARK    8  A    between atoms: _24  and  _26
REMARK    9  A    between atoms: _26  and  _27
REMARK   10  A    between atoms: _26  and  _29
REMARK   11  A    between atoms: _29  and  _30
REMARK   12  A    between atoms: _35  and  _37
REMARK   13  A    between atoms: _37  and  _38
REMARK   14  A    between atoms: _37  and  _40
REMARK   15  A    between atoms: _40  and  _41
REMARK   16  A    between atoms: _44  and  _46
REMARK   17  A    between atoms: _46  and  _47
REMARK   18  A    between atoms: _49  and  _51
REMARK   19  A    between atoms: _51  and  _52
REMARK   20  A    between atoms: _51  and  _54
REMARK   21  A    between atoms: _54  and  _55
REMARK   22  A    between atoms: _55  and  _56
REMARK   23  A    between atoms: _56  and  _57
REMARK   24  A    between atoms: _66  and  _68
REMARK   25  A    between atoms: _68  and  _69
REMARK   26  A    between atoms: _68  and  _71
REMARK   27  A    between atoms: _71  and  _72
REMARK   28  A    between atoms: _75  and  _77
REMARK   29  A    between atoms: _77  and  _78
REMARK   30  A    between atoms: _80  and  _82
REMARK   31  A    between atoms: _82  and  _83
REMARK   32  A    between atoms: _82  and  _85
REMARK   33  A    between atoms: _85  and  _86
REMARK   34  A    between atoms: _86  and  _87
REMARK   35  A    between atoms: _87  and  _88
REMARK   36  A    between atoms: _97  and  _99
REMARK   37  A    between atoms: _99  and  _100
REMARK   38  A    between atoms: _99  and  _102
REMARK   39  A    between atoms: _102  and  _103
REMARK   40  A    between atoms: _103  and  _104
REMARK   41  A    between atoms: _104  and  _105
REMARK   42  A    between atoms: _114  and  _116
REMARK   43  A    between atoms: _116  and  _117
REMARK   44  A    between atoms: _116  and  _119
REMARK   45  A    between atoms: _119  and  _120
REMARK   46  A    between atoms: _120  and  _121
REMARK   47  A    between atoms: _125  and  _126
REMARK   48  A    between atoms: _131  and  _133
REMARK   49  A    between atoms: _133  and  _134
REMARK   50  A    between atoms: _133  and  _136
REMARK   51  A    between atoms: _139  and  _141
REMARK   52  A    between atoms: _141  and  _142
REMARK   53  A    between atoms: _141  and  _144
REMARK   54  A    between atoms: _144  and  _145
REMARK   55  A    between atoms: _150  and  _151
REMARK   56  A    between atoms: _153  and  _155
REMARK   57  A    between atoms: _155  and  _156
REMARK   58  A    between atoms: _158  and  _160
REMARK   59  A    between atoms: _160  and  _161
REMARK   60  A    between atoms: _160  and  _163
REMARK   61  A    between atoms: _163  and  _164
REMARK   62  A    between atoms: _167  and  _169
REMARK   63  A    between atoms: _169  and  _170
REMARK   64  A    between atoms: _169  and  _172
REMARK   65  A    between atoms: _172  and  _173
REMARK   66  A    between atoms: _176  and  _178
REMARK   67  A    between atoms: _178  and  _179
REMARK   68  A    between atoms: _178  and  _181
REMARK   69  A    between atoms: _181  and  _182
REMARK   70  A    between atoms: _187  and  _189
REMARK   71  A    between atoms: _189  and  _190
REMARK   72  A    between atoms: _189  and  _192
REMARK   73  A    between atoms: _192  and  _193
REMARK   74  A    between atoms: _196  and  _198
REMARK   75  A    between atoms: _198  and  _199
REMARK   76  A    between atoms: _198  and  _201
REMARK   77  A    between atoms: _201  and  _202
REMARK   78  A    between atoms: _202  and  _203
REMARK   79  A    between atoms: _208  and  _210
REMARK   80  A    between atoms: _210  and  _211
REMARK   81  A    between atoms: _210  and  _213
REMARK   82  A    between atoms: _213  and  _214
REMARK   83  A    between atoms: _217  and  _219
REMARK   84  A    between atoms: _219  and  _220
REMARK   85  A    between atoms: _219  and  _222
REMARK   86  A    between atoms: _222  and  _223
REMARK   87  A    between atoms: _228  and  _230
REMARK   88  A    between atoms: _230  and  _231
REMARK   89  A    between atoms: _234  and  _236
REMARK   90  A    between atoms: _236  and  _237
REMARK   91  A    between atoms: _239  and  _241
REMARK   92  A    between atoms: _241  and  _242
REMARK   93  A    between atoms: _244  and  _246
REMARK   94  A    between atoms: _246  and  _247
REMARK   95  A    between atoms: _246  and  _249
REMARK   96  A    between atoms: _249  and  _250
REMARK   97  A    between atoms: _253  and  _255
REMARK   98  A    between atoms: _255  and  _256
REMARK   99  A    between atoms: _255  and  _258
REMARK  100  A    between atoms: _258  and  _259
REMARK  101  A    between atoms: _262  and  _264
REMARK  102  A    between atoms: _264  and  _265
REMARK  103  A    between atoms: _264  and  _267
REMARK  104  A    between atoms: _267  and  _268
REMARK  105  A    between atoms: _273  and  _275
REMARK  106  A    between atoms: _275  and  _276
REMARK  107  A    between atoms: _275  and  _278
REMARK  108  A    between atoms: _278  and  _279
REMARK  109  A    between atoms: _282  and  _284
REMARK  110  A    between atoms: _284  and  _285
REMARK  111  A    between atoms: _284  and  _287
REMARK  112  A    between atoms: _287  and  _288
REMARK  113  A    between atoms: _288  and  _289
REMARK  114  A    between atoms: _292  and  _294
REMARK  115  A    between atoms: _294  and  _295
REMARK  116  A    between atoms: _294  and  _297
REMARK  117  A    between atoms: _300  and  _302
REMARK  118  A    between atoms: _302  and  _303
REMARK  119  A    between atoms: _302  and  _305
REMARK  120  A    between atoms: _305  and  _306
REMARK  121  A    between atoms: _311  and  _313
REMARK  122  A    between atoms: _313  and  _314
REMARK  123  A    between atoms: _313  and  _316
REMARK  124  A    between atoms: _316  and  _317
REMARK  125  A    between atoms: _320  and  _322
REMARK  126  A    between atoms: _322  and  _323
REMARK  127  A    between atoms: _322  and  _325
REMARK  128  A    between atoms: _325  and  _326
REMARK  129  A    between atoms: _328  and  _330
REMARK  130  A    between atoms: _330  and  _331
REMARK  131  A    between atoms: _330  and  _333
REMARK  132  A    between atoms: _333  and  _334
REMARK  133  A    between atoms: _339  and  _341
REMARK  134  A    between atoms: _341  and  _342
REMARK  135  A    between atoms: _341  and  _344
REMARK  136  A    between atoms: _347  and  _349
REMARK  137  A    between atoms: _349  and  _350
REMARK  138  A    between atoms: _349  and  _352
REMARK  139  A    between atoms: _352  and  _353
REMARK  140  A    between atoms: _358  and  _360
REMARK  141  A    between atoms: _360  and  _361
REMARK  142  A    between atoms: _360  and  _363
REMARK  143  A    between atoms: _363  and  _364
REMARK  144  A    between atoms: _364  and  _365
REMARK  145  A    between atoms: _365  and  _366
REMARK  146  A    between atoms: _375  and  _377
REMARK  147  A    between atoms: _377  and  _378
REMARK  148  A    between atoms: _377  and  _380
REMARK  149  A    between atoms: _380  and  _381
REMARK  150  A    between atoms: _381  and  _382
REMARK  151  A    between atoms: _385  and  _387
REMARK  152  A    between atoms: _387  and  _388
REMARK  153  A    between atoms: _387  and  _390
REMARK  154  A    between atoms: _390  and  _391
REMARK  155  A    between atoms: _397  and  _399
REMARK  156  A    between atoms: _399  and  _400
REMARK  157  A    between atoms: _399  and  _402
REMARK  158  A    between atoms: _402  and  _403
REMARK  159  A    between atoms: _403  and  _404
REMARK  160  A    between atoms: _404  and  _405
REMARK  161  A    between atoms: _414  and  _416
REMARK  162  A    between atoms: _416  and  _417
REMARK  163  A    between atoms: _416  and  _419
REMARK  164  A    between atoms: _419  and  _420
REMARK  165  A    between atoms: _420  and  _421
REMARK  166  A    between atoms: _421  and  _422
REMARK  167  A    between atoms: _431  and  _433
REMARK  168  A    between atoms: _433  and  _434
REMARK  169  A    between atoms: _433  and  _436
REMARK  170  A    between atoms: _436  and  _437
REMARK  171  A    between atoms: _442  and  _444
REMARK  172  A    between atoms: _444  and  _445
REMARK  173  A    between atoms: _444  and  _447
REMARK  174  A    between atoms: _447  and  _448
REMARK  175  A    between atoms: _450  and  _452
REMARK  176  A    between atoms: _452  and  _453
REMARK  177  A    between atoms: _452  and  _455
REMARK  178  A    between atoms: _455  and  _456
REMARK  179  A    between atoms: _459  and  _461
REMARK  180  A    between atoms: _461  and  _462
REMARK  181  A    between atoms: _461  and  _464
REMARK  182  A    between atoms: _464  and  _465
REMARK  183  A    between atoms: _468  and  _470
REMARK  184  A    between atoms: _470  and  _471
REMARK  185  A    between atoms: _470  and  _473
REMARK  186  A    between atoms: _476  and  _478
REMARK  187  A    between atoms: _478  and  _479
REMARK  188  A    between atoms: _481  and  _483
REMARK  189  A    between atoms: _483  and  _484
REMARK  190  A    between atoms: _483  and  _486
REMARK  191  A    between atoms: _486  and  _487
REMARK  192  A    between atoms: _490  and  _492
REMARK  193  A    between atoms: _492  and  _493
REMARK  194  A    between atoms: _495  and  _497
REMARK  195  A    between atoms: _497  and  _498
REMARK  196  A    between atoms: _497  and  _500
REMARK  197  A    between atoms: _500  and  _501
REMARK  198  A    between atoms: _504  and  _506
REMARK  199  A    between atoms: _506  and  _507
REMARK  200  A    between atoms: _506  and  _509
REMARK  201  A    between atoms: _509  and  _510
REMARK  202  A    between atoms: _515  and  _516
REMARK  203  A    between atoms: _518  and  _520
REMARK  204  A    between atoms: _520  and  _521
REMARK  205  A    between atoms: _520  and  _523
REMARK  206  A    between atoms: _523  and  _524
REMARK  207  A    between atoms: _529  and  _531
REMARK  208  A    between atoms: _531  and  _532
REMARK  209  A    between atoms: _531  and  _534
REMARK  210  A    between atoms: _537  and  _539
REMARK  211  A    between atoms: _539  and  _540
REMARK  212  A    between atoms: _543  and  _545
REMARK  213  A    between atoms: _545  and  _546
REMARK  214  A    between atoms: _545  and  _548
REMARK  215  A    between atoms: _548  and  _549
REMARK  216  A    between atoms: _552  and  _554
REMARK  217  A    between atoms: _554  and  _555
REMARK  218  A    between atoms: _554  and  _557
REMARK  219  A    between atoms: _557  and  _558
REMARK  220  A    between atoms: _558  and  _559
REMARK  221  A    between atoms: _559  and  _560
REMARK  222  A    between atoms: _569  and  _571
REMARK  223  A    between atoms: _571  and  _572
REMARK  224  A    between atoms: _571  and  _574
REMARK  225  A    between atoms: _574  and  _575
REMARK  226  A    between atoms: _578  and  _580
REMARK  227  A    between atoms: _580  and  _581
REMARK  228  A    between atoms: _584  and  _586
REMARK  229  A    between atoms: _586  and  _587
REMARK  230  A    between atoms: _590  and  _592
REMARK  231  A    between atoms: _592  and  _593
REMARK  232  A    between atoms: _592  and  _595
REMARK  233  A    between atoms: _595  and  _596
REMARK  234  A    between atoms: _596  and  _597
REMARK                            x       y       z     vdW  Elec       q    Type
REMARK                         _______ _______ _______ _____ _____    ______ ____
ROOT
ATOM      1  O   HOH     1      19.406  -1.805  32.840  0.00  0.00    +0.000 OA
ENDROOT
TORSDOF 0
REMARK  Name = ../refined-set-2016/2xb8/2xb8_pocket.pdb
REMARK  234 active torsions:
REMARK  status: ('A' for Active; 'I' for Inactive)
REMARK    1  A    between atoms: _1  and  _3
REMARK    2  A    between atoms: _3  and  _4
REMARK    3  A    between atoms: _3  and  _6
REMARK    4  A    between atoms: _6  and  _7
REMARK    5  A    between atoms: _12  and  _14
REMARK    6  A    between atoms: _14  and  _15
REMARK    7  A    between atoms: _18  and  _19
REMARK    8  A    between atoms: _24  and  _26
REMARK    9  A    between atoms: _26  and  _27
REMARK   10  A    between atoms: _26  and  _29
REMARK   11  A    between atoms: _29  and  _30
REMARK   12  A    between atoms: _35  and  _37
REMARK   13  A    between atoms: _37  and  _38
REMARK   14  A    between atoms: _37  and  _40
REMARK   15  A    between atoms: _40  and  _41
REMARK   16  A    between atoms: _44  and  _46
REMARK   17  A    between atoms: _46  and  _47
REMARK   18  A    between atoms: _49  and  _51
REMARK   19  A    between atoms: _51  and  _52
REMARK   20  A    between atoms: _51  and  _54
REMARK   21  A    between atoms: _54  and  _55
REMARK   22  A    between atoms: _55  and  _56
REMARK   23  A    between atoms: _56  and  _57
REMARK   24  A    between atoms: _66  and  _68
REMARK   25  A    between atoms: _68  and  _69
REMARK   26  A    between atoms: _68  and  _71
REMARK   27  A    between atoms: _71  and  _72
REMARK   28  A    between atoms: _75  and  _77
REMARK   29  A    between atoms: _77  and  _78
REMARK   30  A    between atoms: _80  and  _82
REMARK   31  A    between atoms: _82  and  _83
REMARK   32  A    between atoms: _82  and  _85
REMARK   33  A    between atoms: _85  and  _86
REMARK   34  A    between atoms: _86  and  _87
REMARK   35  A    between atoms: _87  and  _88
REMARK   36  A    between atoms: _97  and  _99
REMARK   37  A    between atoms: _99  and  _100
REMARK   38  A    between atoms: _99  and  _102
REMARK   39  A    between atoms: _102  and  _103
REMARK   40  A    between atoms: _103  and  _104
REMARK   41  A    between atoms: _104  and  _105
REMARK   42  A    between atoms: _114  and  _116
REMARK   43  A    between atoms: _116  and  _117
REMARK   44  A    between atoms: _116  and  _119
REMARK   45  A    between atoms: _119  and  _120
REMARK   46  A    between atoms: _120  and  _121
REMARK   47  A    between atoms: _125  and  _126
REMARK   48  A    between atoms: _131  and  _133
REMARK   49  A    between atoms: _133  and  _134
REMARK   50  A    between atoms: _133  and  _136
REMARK   51  A    between atoms: _139  and  _141
REMARK   52  A    between atoms: _141  and  _142
REMARK   53  A    between atoms: _141  and  _144
REMARK   54  A    between atoms: _144  and  _145
REMARK   55  A    between atoms: _150  and  _151
REMARK   56  A    between atoms: _153  and  _155
REMARK   57  A    between atoms: _155  and  _156
REMARK   58  A    between atoms: _158  and  _160
REMARK   59  A    between atoms: _160  and  _161
REMARK   60  A    between atoms: _160  and  _163
REMARK   61  A    between atoms: _163  and  _164
REMARK   62  A    between atoms: _167  and  _169
REMARK   63  A    between atoms: _169  and  _170
REMARK   64  A    between atoms: _169  and  _172
REMARK   65  A    between atoms: _172  and  _173
REMARK   66  A    between atoms: _176  and  _178
REMARK   67  A    between atoms: _178  and  _179
REMARK   68  A    between atoms: _178  and  _181
REMARK   69  A    between atoms: _181  and  _182
REMARK   70  A    between atoms: _187  and  _189
REMARK   71  A    between atoms: _189  and  _190
REMARK   72  A    between atoms: _189  and  _192
REMARK   73  A    between atoms: _192  and  _193
REMARK   74  A    between atoms: _196  and  _198
REMARK   75  A    between atoms: _198  and  _199
REMARK   76  A    between atoms: _198  and  _201
REMARK   77  A    between atoms: _201  and  _202
REMARK   78  A    between atoms: _202  and  _203
REMARK   79  A    between atoms: _208  and  _210
REMARK   80  A    between atoms: _210  and  _211
REMARK   81  A    between atoms: _210  and  _213
REMARK   82  A    between atoms: _213  and  _214
REMARK   83  A    between atoms: _217  and  _219
REMARK   84  A    between atoms: _219  and  _220
REMARK   85  A    between atoms: _219  and  _222
REMARK   86  A    between atoms: _222  and  _223
REMARK   87  A    between atoms: _228  and  _230
REMARK   88  A    between atoms: _230  and  _231
REMARK   89  A    between atoms: _234  and  _236
REMARK   90  A    between atoms: _236  and  _237
REMARK   91  A    between atoms: _239  and  _241
REMARK   92  A    between atoms: _241  and  _242
REMARK   93  A    between atoms: _244  and  _246
REMARK   94  A    between atoms: _246  and  _247
REMARK   95  A    between atoms: _246  and  _249
REMARK   96  A    between atoms: _249  and  _250
REMARK   97  A    between atoms: _253  and  _255
REMARK   98  A    between atoms: _255  and  _256
REMARK   99  A    between atoms: _255  and  _258
REMARK  100  A    between atoms: _258  and  _259
REMARK  101  A    between atoms: _262  and  _264
REMARK  102  A    between atoms: _264  and  _265
REMARK  103  A    between atoms: _264  and  _267
REMARK  104  A    between atoms: _267  and  _268
REMARK  105  A    between atoms: _273  and  _275
REMARK  106  A    between atoms: _275  and  _276
REMARK  107  A    between atoms: _275  and  _278
REMARK  108  A    between atoms: _278  and  _279
REMARK  109  A    between atoms: _282  and  _284
REMARK  110  A    between atoms: _284  and  _285
REMARK  111  A    between atoms: _284  and  _287
REMARK  112  A    between atoms: _287  and  _288
REMARK  113  A    between atoms: _288  and  _289
REMARK  114  A    between atoms: _292  and  _294
REMARK  115  A    between atoms: _294  and  _295
REMARK  116  A    between atoms: _294  and  _297
REMARK  117  A    between atoms: _300  and  _302
REMARK  118  A    between atoms: _302  and  _303
REMARK  119  A    between atoms: _302  and  _305
REMARK  120  A    between atoms: _305  and  _306
REMARK  121  A    between atoms: _311  and  _313
REMARK  122  A    between atoms: _313  and  _314
REMARK  123  A    between atoms: _313  and  _316
REMARK  124  A    between atoms: _316  and  _317
REMARK  125  A    between atoms: _320  and  _322
REMARK  126  A    between atoms: _322  and  _323
REMARK  127  A    between atoms: _322  and  _325
REMARK  128  A    between atoms: _325  and  _326
REMARK  129  A    between atoms: _328  and  _330
REMARK  130  A    between atoms: _330  and  _331
REMARK  131  A    between atoms: _330  and  _333
REMARK  132  A    between atoms: _333  and  _334
REMARK  133  A    between atoms: _339  and  _341
REMARK  134  A    between atoms: _341  and  _342
REMARK  135  A    between atoms: _341  and  _344
REMARK  136  A    between atoms: _347  and  _349
REMARK  137  A    between atoms: _349  and  _350
REMARK  138  A    between atoms: _349  and  _352
REMARK  139  A    between atoms: _352  and  _353
REMARK  140  A    between atoms: _358  and  _360
REMARK  141  A    between atoms: _360  and  _361
REMARK  142  A    between atoms: _360  and  _363
REMARK  143  A    between atoms: _363  and  _364
REMARK  144  A    between atoms: _364  and  _365
REMARK  145  A    between atoms: _365  and  _366
REMARK  146  A    between atoms: _375  and  _377
REMARK  147  A    between atoms: _377  and  _378
REMARK  148  A    between atoms: _377  and  _380
REMARK  149  A    between atoms: _380  and  _381
REMARK  150  A    between atoms: _381  and  _382
REMARK  151  A    between atoms: _385  and  _387
REMARK  152  A    between atoms: _387  and  _388
REMARK  153  A    between atoms: _387  and  _390
REMARK  154  A    between atoms: _390  and  _391
REMARK  155  A    between atoms: _397  and  _399
REMARK  156  A    between atoms: _399  and  _400
REMARK  157  A    between atoms: _399  and  _402
REMARK  158  A    between atoms: _402  and  _403
REMARK  159  A    between atoms: _403  and  _404
REMARK  160  A    between atoms: _404  and  _405
REMARK  161  A    between atoms: _414  and  _416
REMARK  162  A    between atoms: _416  and  _417
REMARK  163  A    between atoms: _416  and  _419
REMARK  164  A    between atoms: _419  and  _420
REMARK  165  A    between atoms: _420  and  _421
REMARK  166  A    between atoms: _421  and  _422
REMARK  167  A    between atoms: _431  and  _433
REMARK  168  A    between atoms: _433  and  _434
REMARK  169  A    between atoms: _433  and  _436
REMARK  170  A    between atoms: _436  and  _437
REMARK  171  A    between atoms: _442  and  _444
REMARK  172  A    between atoms: _444  and  _445
REMARK  173  A    between atoms: _444  and  _447
REMARK  174  A    between atoms: _447  and  _448
REMARK  175  A    between atoms: _450  and  _452
REMARK  176  A    between atoms: _452  and  _453
REMARK  177  A    between atoms: _452  and  _455
REMARK  178  A    between atoms: _455  and  _456
REMARK  179  A    between atoms: _459  and  _461
REMARK  180  A    between atoms: _461  and  _462
REMARK  181  A    between atoms: _461  and  _464
REMARK  182  A    between atoms: _464  and  _465
REMARK  183  A    between atoms: _468  and  _470
REMARK  184  A    between atoms: _470  and  _471
REMARK  185  A    between atoms: _470  and  _473
REMARK  186  A    between atoms: _476  and  _478
REMARK  187  A    between atoms: _478  and  _479
REMARK  188  A    between atoms: _481  and  _483
REMARK  189  A    between atoms: _483  and  _484
REMARK  190  A    between atoms: _483  and  _486
REMARK  191  A    between atoms: _486  and  _487
REMARK  192  A    between atoms: _490  and  _492
REMARK  193  A    between atoms: _492  and  _493
REMARK  194  A    between atoms: _495  and  _497
REMARK  195  A    between atoms: _497  and  _498
REMARK  196  A    between atoms: _497  and  _500
REMARK  197  A    between atoms: _500  and  _501
REMARK  198  A    between atoms: _504  and  _506
REMARK  199  A    between atoms: _506  and  _507
REMARK  200  A    between atoms: _506  and  _509
REMARK  201  A    between atoms: _509  and  _510
REMARK  202  A    between atoms: _515  and  _516
REMARK  203  A    between atoms: _518  and  _520
REMARK  204  A    between atoms: _520  and  _521
REMARK  205  A    between atoms: _520  and  _523
REMARK  206  A    between atoms: _523  and  _524
REMARK  207  A    between atoms: _529  and  _531
REMARK  208  A    between atoms: _531  and  _532
REMARK  209  A    between atoms: _531  and  _534
REMARK  210  A    between atoms: _537  and  _539
REMARK  211  A    between atoms: _539  and  _540
REMARK  212  A    between atoms: _543  and  _545
REMARK  213  A    between atoms: _545  and  _546
REMARK  214  A    between atoms: _545  and  _548
REMARK  215  A    between atoms: _548  and  _549
REMARK  216  A    between atoms: _552  and  _554
REMARK  217  A    between atoms: _554  and  _555
REMARK  218  A    between atoms: _554  and  _557
REMARK  219  A    between atoms: _557  and  _558
REMARK  220  A    between atoms: _558  and  _559
REMARK  221  A    between atoms: _559  and  _560
REMARK  222  A    between atoms: _569  and  _571
REMARK  223  A    between atoms: _571  and  _572
REMARK  224  A    between atoms: _571  and  _574
REMARK  225  A    between atoms: _574  and  _575
REMARK  226  A    between atoms: _578  and  _580
REMARK  227  A    between atoms: _580  and  _581
REMARK  228  A    between atoms: _584  and  _586
REMARK  229  A    between atoms: _586  and  _587
REMARK  230  A    between atoms: _590  and  _592
REMARK  231  A    between atoms: _592  and  _593
REMARK  232  A    between atoms: _592  and  _595
REMARK  233  A    between atoms: _595  and  _596
REMARK  234  A    between atoms: _596  and  _597
REMARK                            x       y       z     vdW  Elec       q    Type
REMARK                         _______ _______ _______ _____ _____    ______ ____
ROOT
ATOM      1  O   HOH     1      20.787  -1.542  39.024  0.00  0.00    +0.000 OA
ENDROOT
TORSDOF 0
REMARK  Name = ../refined-set-2016/2xb8/2xb8_pocket.pdb
REMARK  234 active torsions:
REMARK  status: ('A' for Active; 'I' for Inactive)
REMARK    1  A    between atoms: _1  and  _3
REMARK    2  A    between atoms: _3  and  _4
REMARK    3  A    between atoms: _3  and  _6
REMARK    4  A    between atoms: _6  and  _7
REMARK    5  A    between atoms: _12  and  _14
REMARK    6  A    between atoms: _14  and  _15
REMARK    7  A    between atoms: _18  and  _19
REMARK    8  A    between atoms: _24  and  _26
REMARK    9  A    between atoms: _26  and  _27
REMARK   10  A    between atoms: _26  and  _29
REMARK   11  A    between atoms: _29  and  _30
REMARK   12  A    between atoms: _35  and  _37
REMARK   13  A    between atoms: _37  and  _38
REMARK   14  A    between atoms: _37  and  _40
REMARK   15  A    between atoms: _40  and  _41
REMARK   16  A    between atoms: _44  and  _46
REMARK   17  A    between atoms: _46  and  _47
REMARK   18  A    between atoms: _49  and  _51
REMARK   19  A    between atoms: _51  and  _52
REMARK   20  A    between atoms: _51  and  _54
REMARK   21  A    between atoms: _54  and  _55
REMARK   22  A    between atoms: _55  and  _56
REMARK   23  A    between atoms: _56  and  _57
REMARK   24  A    between atoms: _66  and  _68
REMARK   25  A    between atoms: _68  and  _69
REMARK   26  A    between atoms: _68  and  _71
REMARK   27  A    between atoms: _71  and  _72
REMARK   28  A    between atoms: _75  and  _77
REMARK   29  A    between atoms: _77  and  _78
REMARK   30  A    between atoms: _80  and  _82
REMARK   31  A    between atoms: _82  and  _83
REMARK   32  A    between atoms: _82  and  _85
REMARK   33  A    between atoms: _85  and  _86
REMARK   34  A    between atoms: _86  and  _87
REMARK   35  A    between atoms: _87  and  _88
REMARK   36  A    between atoms: _97  and  _99
REMARK   37  A    between atoms: _99  and  _100
REMARK   38  A    between atoms: _99  and  _102
REMARK   39  A    between atoms: _102  and  _103
REMARK   40  A    between atoms: _103  and  _104
REMARK   41  A    between atoms: _104  and  _105
REMARK   42  A    between atoms: _114  and  _116
REMARK   43  A    between atoms: _116  and  _117
REMARK   44  A    between atoms: _116  and  _119
REMARK   45  A    between atoms: _119  and  _120
REMARK   46  A    between atoms: _120  and  _121
REMARK   47  A    between atoms: _125  and  _126
REMARK   48  A    between atoms: _131  and  _133
REMARK   49  A    between atoms: _133  and  _134
REMARK   50  A    between atoms: _133  and  _136
REMARK   51  A    between atoms: _139  and  _141
REMARK   52  A    between atoms: _141  and  _142
REMARK   53  A    between atoms: _141  and  _144
REMARK   54  A    between atoms: _144  and  _145
REMARK   55  A    between atoms: _150  and  _151
REMARK   56  A    between atoms: _153  and  _155
REMARK   57  A    between atoms: _155  and  _156
REMARK   58  A    between atoms: _158  and  _160
REMARK   59  A    between atoms: _160  and  _161
REMARK   60  A    between atoms: _160  and  _163
REMARK   61  A    between atoms: _163  and  _164
REMARK   62  A    between atoms: _167  and  _169
REMARK   63  A    between atoms: _169  and  _170
REMARK   64  A    between atoms: _169  and  _172
REMARK   65  A    between atoms: _172  and  _173
REMARK   66  A    between atoms: _176  and  _178
REMARK   67  A    between atoms: _178  and  _179
REMARK   68  A    between atoms: _178  and  _181
REMARK   69  A    between atoms: _181  and  _182
REMARK   70  A    between atoms: _187  and  _189
REMARK   71  A    between atoms: _189  and  _190
REMARK   72  A    between atoms: _189  and  _192
REMARK   73  A    between atoms: _192  and  _193
REMARK   74  A    between atoms: _196  and  _198
REMARK   75  A    between atoms: _198  and  _199
REMARK   76  A    between atoms: _198  and  _201
REMARK   77  A    between atoms: _201  and  _202
REMARK   78  A    between atoms: _202  and  _203
REMARK   79  A    between atoms: _208  and  _210
REMARK   80  A    between atoms: _210  and  _211
REMARK   81  A    between atoms: _210  and  _213
REMARK   82  A    between atoms: _213  and  _214
REMARK   83  A    between atoms: _217  and  _219
REMARK   84  A    between atoms: _219  and  _220
REMARK   85  A    between atoms: _219  and  _222
REMARK   86  A    between atoms: _222  and  _223
REMARK   87  A    between atoms: _228  and  _230
REMARK   88  A    between atoms: _230  and  _231
REMARK   89  A    between atoms: _234  and  _236
REMARK   90  A    between atoms: _236  and  _237
REMARK   91  A    between atoms: _239  and  _241
REMARK   92  A    between atoms: _241  and  _242
REMARK   93  A    between atoms: _244  and  _246
REMARK   94  A    between atoms: _246  and  _247
REMARK   95  A    between atoms: _246  and  _249
REMARK   96  A    between atoms: _249  and  _250
REMARK   97  A    between atoms: _253  and  _255
REMARK   98  A    between atoms: _255  and  _256
REMARK   99  A    between atoms: _255  and  _258
REMARK  100  A    between atoms: _258  and  _259
REMARK  101  A    between atoms: _262  and  _264
REMARK  102  A    between atoms: _264  and  _265
REMARK  103  A    between atoms: _264  and  _267
REMARK  104  A    between atoms: _267  and  _268
REMARK  105  A    between atoms: _273  and  _275
REMARK  106  A    between atoms: _275  and  _276
REMARK  107  A    between atoms: _275  and  _278
REMARK  108  A    between atoms: _278  and  _279
REMARK  109  A    between atoms: _282  and  _284
REMARK  110  A    between atoms: _284  and  _285
REMARK  111  A    between atoms: _284  and  _287
REMARK  112  A    between atoms: _287  and  _288
REMARK  113  A    between atoms: _288  and  _289
REMARK  114  A    between atoms: _292  and  _294
REMARK  115  A    between atoms: _294  and  _295
REMARK  116  A    between atoms: _294  and  _297
REMARK  117  A    between atoms: _300  and  _302
REMARK  118  A    between atoms: _302  and  _303
REMARK  119  A    between atoms: _302  and  _305
REMARK  120  A    between atoms: _305  and  _306
REMARK  121  A    between atoms: _311  and  _313
REMARK  122  A    between atoms: _313  and  _314
REMARK  123  A    between atoms: _313  and  _316
REMARK  124  A    between atoms: _316  and  _317
REMARK  125  A    between atoms: _320  and  _322
REMARK  126  A    between atoms: _322  and  _323
REMARK  127  A    between atoms: _322  and  _325
REMARK  128  A    between atoms: _325  and  _326
REMARK  129  A    between atoms: _328  and  _330
REMARK  130  A    between atoms: _330  and  _331
REMARK  131  A    between atoms: _330  and  _333
REMARK  132  A    between atoms: _333  and  _334
REMARK  133  A    between atoms: _339  and  _341
REMARK  134  A    between atoms: _341  and  _342
REMARK  135  A    between atoms: _341  and  _344
REMARK  136  A    between atoms: _347  and  _349
REMARK  137  A    between atoms: _349  and  _350
REMARK  138  A    between atoms: _349  and  _352
REMARK  139  A    between atoms: _352  and  _353
REMARK  140  A    between atoms: _358  and  _360
REMARK  141  A    between atoms: _360  and  _361
REMARK  142  A    between atoms: _360  and  _363
REMARK  143  A    between atoms: _363  and  _364
REMARK  144  A    between atoms: _364  and  _365
REMARK  145  A    between atoms: _365  and  _366
REMARK  146  A    between atoms: _375  and  _377
REMARK  147  A    between atoms: _377  and  _378
REMARK  148  A    between atoms: _377  and  _380
REMARK  149  A    between atoms: _380  and  _381
REMARK  150  A    between atoms: _381  and  _382
REMARK  151  A    between atoms: _385  and  _387
REMARK  152  A    between atoms: _387  and  _388
REMARK  153  A    between atoms: _387  and  _390
REMARK  154  A    between atoms: _390  and  _391
REMARK  155  A    between atoms: _397  and  _399
REMARK  156  A    between atoms: _399  and  _400
REMARK  157  A    between atoms: _399  and  _402
REMARK  158  A    between atoms: _402  and  _403
REMARK  159  A    between atoms: _403  and  _404
REMARK  160  A    between atoms: _404  and  _405
REMARK  161  A    between atoms: _414  and  _416
REMARK  162  A    between atoms: _416  and  _417
REMARK  163  A    between atoms: _416  and  _419
REMARK  164  A    between atoms: _419  and  _420
REMARK  165  A    between atoms: _420  and  _421
REMARK  166  A    between atoms: _421  and  _422
REMARK  167  A    between atoms: _431  and  _433
REMARK  168  A    between atoms: _433  and  _434
REMARK  169  A    between atoms: _433  and  _436
REMARK  170  A    between atoms: _436  and  _437
REMARK  171  A    between atoms: _442  and  _444
REMARK  172  A    between atoms: _444  and  _445
REMARK  173  A    between atoms: _444  and  _447
REMARK  174  A    between atoms: _447  and  _448
REMARK  175  A    between atoms: _450  and  _452
REMARK  176  A    between atoms: _452  and  _453
REMARK  177  A    between atoms: _452  and  _455
REMARK  178  A    between atoms: _455  and  _456
REMARK  179  A    between atoms: _459  and  _461
REMARK  180  A    between atoms: _461  and  _462
REMARK  181  A    between atoms: _461  and  _464
REMARK  182  A    between atoms: _464  and  _465
REMARK  183  A    between atoms: _468  and  _470
REMARK  184  A    between atoms: _470  and  _471
REMARK  185  A    between atoms: _470  and  _473
REMARK  186  A    between atoms: _476  and  _478
REMARK  187  A    between atoms: _478  and  _479
REMARK  188  A    between atoms: _481  and  _483
REMARK  189  A    between atoms: _483  and  _484
REMARK  190  A    between atoms: _483  and  _486
REMARK  191  A    between atoms: _486  and  _487
REMARK  192  A    between atoms: _490  and  _492
REMARK  193  A    between atoms: _492  and  _493
REMARK  194  A    between atoms: _495  and  _497
REMARK  195  A    between atoms: _497  and  _498
REMARK  196  A    between atoms: _497  and  _500
REMARK  197  A    between atoms: _500  and  _501
REMARK  198  A    between atoms: _504  and  _506
REMARK  199  A    between atoms: _506  and  _507
REMARK  200  A    between atoms: _506  and  _509
REMARK  201  A    between atoms: _509  and  _510
REMARK  202  A    between atoms: _515  and  _516
REMARK  203  A    between atoms: _518  and  _520
REMARK  204  A    between atoms: _520  and  _521
REMARK  205  A    between atoms: _520  and  _523
REMARK  206  A    between atoms: _523  and  _524
REMARK  207  A    between atoms: _529  and  _531
REMARK  208  A    between atoms: _531  and  _532
REMARK  209  A    between atoms: _531  and  _534
REMARK  210  A    between atoms: _537  and  _539
REMARK  211  A    between atoms: _539  and  _540
REMARK  212  A    between atoms: _543  and  _545
REMARK  213  A    between atoms: _545  and  _546
REMARK  214  A    between atoms: _545  and  _548
REMARK  215  A    between atoms: _548  and  _549
REMARK  216  A    between atoms: _552  and  _554
REMARK  217  A    between atoms: _554  and  _555
REMARK  218  A    between atoms: _554  and  _557
REMARK  219  A    between atoms: _557  and  _558
REMARK  220  A    between atoms: _558  and  _559
REMARK  221  A    between atoms: _559  and  _560
REMARK  222  A    between atoms: _569  and  _571
REMARK  223  A    between atoms: _571  and  _572
REMARK  224  A    between atoms: _571  and  _574
REMARK  225  A    between atoms: _574  and  _575
REMARK  226  A    between atoms: _578  and  _580
REMARK  227  A    between atoms: _580  and  _581
REMARK  228  A    between atoms: _584  and  _586
REMARK  229  A    between atoms: _586  and  _587
REMARK  230  A    between atoms: _590  and  _592
REMARK  231  A    between atoms: _592  and  _593
REMARK  232  A    between atoms: _592  and  _595
REMARK  233  A    between atoms: _595  and  _596
REMARK  234  A    between atoms: _596  and  _597
REMARK                            x       y       z     vdW  Elec       q    Type
REMARK                         _______ _______ _______ _____ _____    ______ ____
ROOT
ATOM      1  O   HOH     1      16.764  -0.240  41.833  0.00  0.00    +0.000 OA
ENDROOT
TORSDOF 0
REMARK  Name = ../refined-set-2016/2xb8/2xb8_pocket.pdb
REMARK  234 active torsions:
REMARK  status: ('A' for Active; 'I' for Inactive)
REMARK    1  A    between atoms: _1  and  _3
REMARK    2  A    between atoms: _3  and  _4
REMARK    3  A    between atoms: _3  and  _6
REMARK    4  A    between atoms: _6  and  _7
REMARK    5  A    between atoms: _12  and  _14
REMARK    6  A    between atoms: _14  and  _15
REMARK    7  A    between atoms: _18  and  _19
REMARK    8  A    between atoms: _24  and  _26
REMARK    9  A    between atoms: _26  and  _27
REMARK   10  A    between atoms: _26  and  _29
REMARK   11  A    between atoms: _29  and  _30
REMARK   12  A    between atoms: _35  and  _37
REMARK   13  A    between atoms: _37  and  _38
REMARK   14  A    between atoms: _37  and  _40
REMARK   15  A    between atoms: _40  and  _41
REMARK   16  A    between atoms: _44  and  _46
REMARK   17  A    between atoms: _46  and  _47
REMARK   18  A    between atoms: _49  and  _51
REMARK   19  A    between atoms: _51  and  _52
REMARK   20  A    between atoms: _51  and  _54
REMARK   21  A    between atoms: _54  and  _55
REMARK   22  A    between atoms: _55  and  _56
REMARK   23  A    between atoms: _56  and  _57
REMARK   24  A    between atoms: _66  and  _68
REMARK   25  A    between atoms: _68  and  _69
REMARK   26  A    between atoms: _68  and  _71
REMARK   27  A    between atoms: _71  and  _72
REMARK   28  A    between atoms: _75  and  _77
REMARK   29  A    between atoms: _77  and  _78
REMARK   30  A    between atoms: _80  and  _82
REMARK   31  A    between atoms: _82  and  _83
REMARK   32  A    between atoms: _82  and  _85
REMARK   33  A    between atoms: _85  and  _86
REMARK   34  A    between atoms: _86  and  _87
REMARK   35  A    between atoms: _87  and  _88
REMARK   36  A    between atoms: _97  and  _99
REMARK   37  A    between atoms: _99  and  _100
REMARK   38  A    between atoms: _99  and  _102
REMARK   39  A    between atoms: _102  and  _103
REMARK   40  A    between atoms: _103  and  _104
REMARK   41  A    between atoms: _104  and  _105
REMARK   42  A    between atoms: _114  and  _116
REMARK   43  A    between atoms: _116  and  _117
REMARK   44  A    between atoms: _116  and  _119
REMARK   45  A    between atoms: _119  and  _120
REMARK   46  A    between atoms: _120  and  _121
REMARK   47  A    between atoms: _125  and  _126
REMARK   48  A    between atoms: _131  and  _133
REMARK   49  A    between atoms: _133  and  _134
REMARK   50  A    between atoms: _133  and  _136
REMARK   51  A    between atoms: _139  and  _141
REMARK   52  A    between atoms: _141  and  _142
REMARK   53  A    between atoms: _141  and  _144
REMARK   54  A    between atoms: _144  and  _145
REMARK   55  A    between atoms: _150  and  _151
REMARK   56  A    between atoms: _153  and  _155
REMARK   57  A    between atoms: _155  and  _156
REMARK   58  A    between atoms: _158  and  _160
REMARK   59  A    between atoms: _160  and  _161
REMARK   60  A    between atoms: _160  and  _163
REMARK   61  A    between atoms: _163  and  _164
REMARK   62  A    between atoms: _167  and  _169
REMARK   63  A    between atoms: _169  and  _170
REMARK   64  A    between atoms: _169  and  _172
REMARK   65  A    between atoms: _172  and  _173
REMARK   66  A    between atoms: _176  and  _178
REMARK   67  A    between atoms: _178  and  _179
REMARK   68  A    between atoms: _178  and  _181
REMARK   69  A    between atoms: _181  and  _182
REMARK   70  A    between atoms: _187  and  _189
REMARK   71  A    between atoms: _189  and  _190
REMARK   72  A    between atoms: _189  and  _192
REMARK   73  A    between atoms: _192  and  _193
REMARK   74  A    between atoms: _196  and  _198
REMARK   75  A    between atoms: _198  and  _199
REMARK   76  A    between atoms: _198  and  _201
REMARK   77  A    between atoms: _201  and  _202
REMARK   78  A    between atoms: _202  and  _203
REMARK   79  A    between atoms: _208  and  _210
REMARK   80  A    between atoms: _210  and  _211
REMARK   81  A    between atoms: _210  and  _213
REMARK   82  A    between atoms: _213  and  _214
REMARK   83  A    between atoms: _217  and  _219
REMARK   84  A    between atoms: _219  and  _220
REMARK   85  A    between atoms: _219  and  _222
REMARK   86  A    between atoms: _222  and  _223
REMARK   87  A    between atoms: _228  and  _230
REMARK   88  A    between atoms: _230  and  _231
REMARK   89  A    between atoms: _234  and  _236
REMARK   90  A    between atoms: _236  and  _237
REMARK   91  A    between atoms: _239  and  _241
REMARK   92  A    between atoms: _241  and  _242
REMARK   93  A    between atoms: _244  and  _246
REMARK   94  A    between atoms: _246  and  _247
REMARK   95  A    between atoms: _246  and  _249
REMARK   96  A    between atoms: _249  and  _250
REMARK   97  A    between atoms: _253  and  _255
REMARK   98  A    between atoms: _255  and  _256
REMARK   99  A    between atoms: _255  and  _258
REMARK  100  A    between atoms: _258  and  _259
REMARK  101  A    between atoms: _262  and  _264
REMARK  102  A    between atoms: _264  and  _265
REMARK  103  A    between atoms: _264  and  _267
REMARK  104  A    between atoms: _267  and  _268
REMARK  105  A    between atoms: _273  and  _275
REMARK  106  A    between atoms: _275  and  _276
REMARK  107  A    between atoms: _275  and  _278
REMARK  108  A    between atoms: _278  and  _279
REMARK  109  A    between atoms: _282  and  _284
REMARK  110  A    between atoms: _284  and  _285
REMARK  111  A    between atoms: _284  and  _287
REMARK  112  A    between atoms: _287  and  _288
REMARK  113  A    between atoms: _288  and  _289
REMARK  114  A    between atoms: _292  and  _294
REMARK  115  A    between atoms: _294  and  _295
REMARK  116  A    between atoms: _294  and  _297
REMARK  117  A    between atoms: _300  and  _302
REMARK  118  A    between atoms: _302  and  _303
REMARK  119  A    between atoms: _302  and  _305
REMARK  120  A    between atoms: _305  and  _306
REMARK  121  A    between atoms: _311  and  _313
REMARK  122  A    between atoms: _313  and  _314
REMARK  123  A    between atoms: _313  and  _316
REMARK  124  A    between atoms: _316  and  _317
REMARK  125  A    between atoms: _320  and  _322
REMARK  126  A    between atoms: _322  and  _323
REMARK  127  A    between atoms: _322  and  _325
REMARK  128  A    between atoms: _325  and  _326
REMARK  129  A    between atoms: _328  and  _330
REMARK  130  A    between atoms: _330  and  _331
REMARK  131  A    between atoms: _330  and  _333
REMARK  132  A    between atoms: _333  and  _334
REMARK  133  A    between atoms: _339  and  _341
REMARK  134  A    between atoms: _341  and  _342
REMARK  135  A    between atoms: _341  and  _344
REMARK  136  A    between atoms: _347  and  _349
REMARK  137  A    between atoms: _349  and  _350
REMARK  138  A    between atoms: _349  and  _352
REMARK  139  A    between atoms: _352  and  _353
REMARK  140  A    between atoms: _358  and  _360
REMARK  141  A    between atoms: _360  and  _361
REMARK  142  A    between atoms: _360  and  _363
REMARK  143  A    between atoms: _363  and  _364
REMARK  144  A    between atoms: _364  and  _365
REMARK  145  A    between atoms: _365  and  _366
REMARK  146  A    between atoms: _375  and  _377
REMARK  147  A    between atoms: _377  and  _378
REMARK  148  A    between atoms: _377  and  _380
REMARK  149  A    between atoms: _380  and  _381
REMARK  150  A    between atoms: _381  and  _382
REMARK  151  A    between atoms: _385  and  _387
REMARK  152  A    between atoms: _387  and  _388
REMARK  153  A    between atoms: _387  and  _390
REMARK  154  A    between atoms: _390  and  _391
REMARK  155  A    between atoms: _397  and  _399
REMARK  156  A    between atoms: _399  and  _400
REMARK  157  A    between atoms: _399  and  _402
REMARK  158  A    between atoms: _402  and  _403
REMARK  159  A    between atoms: _403  and  _404
REMARK  160  A    between atoms: _404  and  _405
REMARK  161  A    between atoms: _414  and  _416
REMARK  162  A    between atoms: _416  and  _417
REMARK  163  A    between atoms: _416  and  _419
REMARK  164  A    between atoms: _419  and  _420
REMARK  165  A    between atoms: _420  and  _421
REMARK  166  A    between atoms: _421  and  _422
REMARK  167  A    between atoms: _431  and  _433
REMARK  168  A    between atoms: _433  and  _434
REMARK  169  A    between atoms: _433  and  _436
REMARK  170  A    between atoms: _436  and  _437
REMARK  171  A    between atoms: _442  and  _444
REMARK  172  A    between atoms: _444  and  _445
REMARK  173  A    between atoms: _444  and  _447
REMARK  174  A    between atoms: _447  and  _448
REMARK  175  A    between atoms: _450  and  _452
REMARK  176  A    between atoms: _452  and  _453
REMARK  177  A    between atoms: _452  and  _455
REMARK  178  A    between atoms: _455  and  _456
REMARK  179  A    between atoms: _459  and  _461
REMARK  180  A    between atoms: _461  and  _462
REMARK  181  A    between atoms: _461  and  _464
REMARK  182  A    between atoms: _464  and  _465
REMARK  183  A    between atoms: _468  and  _470
REMARK  184  A    between atoms: _470  and  _471
REMARK  185  A    between atoms: _470  and  _473
REMARK  186  A    between atoms: _476  and  _478
REMARK  187  A    between atoms: _478  and  _479
REMARK  188  A    between atoms: _481  and  _483
REMARK  189  A    between atoms: _483  and  _484
REMARK  190  A    between atoms: _483  and  _486
REMARK  191  A    between atoms: _486  and  _487
REMARK  192  A    between atoms: _490  and  _492
REMARK  193  A    between atoms: _492  and  _493
REMARK  194  A    between atoms: _495  and  _497
REMARK  195  A    between atoms: _497  and  _498
REMARK  196  A    between atoms: _497  and  _500
REMARK  197  A    between atoms: _500  and  _501
REMARK  198  A    between atoms: _504  and  _506
REMARK  199  A    between atoms: _506  and  _507
REMARK  200  A    between atoms: _506  and  _509
REMARK  201  A    between atoms: _509  and  _510
REMARK  202  A    between atoms: _515  and  _516
REMARK  203  A    between atoms: _518  and  _520
REMARK  204  A    between atoms: _520  and  _521
REMARK  205  A    between atoms: _520  and  _523
REMARK  206  A    between atoms: _523  and  _524
REMARK  207  A    between atoms: _529  and  _531
REMARK  208  A    between atoms: _531  and  _532
REMARK  209  A    between atoms: _531  and  _534
REMARK  210  A    between atoms: _537  and  _539
REMARK  211  A    between atoms: _539  and  _540
REMARK  212  A    between atoms: _543  and  _545
REMARK  213  A    between atoms: _545  and  _546
REMARK  214  A    between atoms: _545  and  _548
REMARK  215  A    between atoms: _548  and  _549
REMARK  216  A    between atoms: _552  and  _554
REMARK  217  A    between atoms: _554  and  _555
REMARK  218  A    between atoms: _554  and  _557
REMARK  219  A    between atoms: _557  and  _558
REMARK  220  A    between atoms: _558  and  _559
REMARK  221  A    between atoms: _559  and  _560
REMARK  222  A    between atoms: _569  and  _571
REMARK  223  A    between atoms: _571  and  _572
REMARK  224  A    between atoms: _571  and  _574
REMARK  225  A    between atoms: _574  and  _575
REMARK  226  A    between atoms: _578  and  _580
REMARK  227  A    between atoms: _580  and  _581
REMARK  228  A    between atoms: _584  and  _586
REMARK  229  A    between atoms: _586  and  _587
REMARK  230  A    between atoms: _590  and  _592
REMARK  231  A    between atoms: _592  and  _593
REMARK  232  A    between atoms: _592  and  _595
REMARK  233  A    between atoms: _595  and  _596
REMARK  234  A    between atoms: _596  and  _597
REMARK                            x       y       z     vdW  Elec       q    Type
REMARK                         _______ _______ _______ _____ _____    ______ ____
ROOT
ATOM      1  O   HOH     1      21.356   8.920  35.954  0.00  0.00    +0.000 OA
ENDROOT
TORSDOF 0
REMARK  Name = ../refined-set-2016/2xb8/2xb8_pocket.pdb
REMARK  234 active torsions:
REMARK  status: ('A' for Active; 'I' for Inactive)
REMARK    1  A    between atoms: _1  and  _3
REMARK    2  A    between atoms: _3  and  _4
REMARK    3  A    between atoms: _3  and  _6
REMARK    4  A    between atoms: _6  and  _7
REMARK    5  A    between atoms: _12  and  _14
REMARK    6  A    between atoms: _14  and  _15
REMARK    7  A    between atoms: _18  and  _19
REMARK    8  A    between atoms: _24  and  _26
REMARK    9  A    between atoms: _26  and  _27
REMARK   10  A    between atoms: _26  and  _29
REMARK   11  A    between atoms: _29  and  _30
REMARK   12  A    between atoms: _35  and  _37
REMARK   13  A    between atoms: _37  and  _38
REMARK   14  A    between atoms: _37  and  _40
REMARK   15  A    between atoms: _40  and  _41
REMARK   16  A    between atoms: _44  and  _46
REMARK   17  A    between atoms: _46  and  _47
REMARK   18  A    between atoms: _49  and  _51
REMARK   19  A    between atoms: _51  and  _52
REMARK   20  A    between atoms: _51  and  _54
REMARK   21  A    between atoms: _54  and  _55
REMARK   22  A    between atoms: _55  and  _56
REMARK   23  A    between atoms: _56  and  _57
REMARK   24  A    between atoms: _66  and  _68
REMARK   25  A    between atoms: _68  and  _69
REMARK   26  A    between atoms: _68  and  _71
REMARK   27  A    between atoms: _71  and  _72
REMARK   28  A    between atoms: _75  and  _77
REMARK   29  A    between atoms: _77  and  _78
REMARK   30  A    between atoms: _80  and  _82
REMARK   31  A    between atoms: _82  and  _83
REMARK   32  A    between atoms: _82  and  _85
REMARK   33  A    between atoms: _85  and  _86
REMARK   34  A    between atoms: _86  and  _87
REMARK   35  A    between atoms: _87  and  _88
REMARK   36  A    between atoms: _97  and  _99
REMARK   37  A    between atoms: _99  and  _100
REMARK   38  A    between atoms: _99  and  _102
REMARK   39  A    between atoms: _102  and  _103
REMARK   40  A    between atoms: _103  and  _104
REMARK   41  A    between atoms: _104  and  _105
REMARK   42  A    between atoms: _114  and  _116
REMARK   43  A    between atoms: _116  and  _117
REMARK   44  A    between atoms: _116  and  _119
REMARK   45  A    between atoms: _119  and  _120
REMARK   46  A    between atoms: _120  and  _121
REMARK   47  A    between atoms: _125  and  _126
REMARK   48  A    between atoms: _131  and  _133
REMARK   49  A    between atoms: _133  and  _134
REMARK   50  A    between atoms: _133  and  _136
REMARK   51  A    between atoms: _139  and  _141
REMARK   52  A    between atoms: _141  and  _142
REMARK   53  A    between atoms: _141  and  _144
REMARK   54  A    between atoms: _144  and  _145
REMARK   55  A    between atoms: _150  and  _151
REMARK   56  A    between atoms: _153  and  _155
REMARK   57  A    between atoms: _155  and  _156
REMARK   58  A    between atoms: _158  and  _160
REMARK   59  A    between atoms: _160  and  _161
REMARK   60  A    between atoms: _160  and  _163
REMARK   61  A    between atoms: _163  and  _164
REMARK   62  A    between atoms: _167  and  _169
REMARK   63  A    between atoms: _169  and  _170
REMARK   64  A    between atoms: _169  and  _172
REMARK   65  A    between atoms: _172  and  _173
REMARK   66  A    between atoms: _176  and  _178
REMARK   67  A    between atoms: _178  and  _179
REMARK   68  A    between atoms: _178  and  _181
REMARK   69  A    between atoms: _181  and  _182
REMARK   70  A    between atoms: _187  and  _189
REMARK   71  A    between atoms: _189  and  _190
REMARK   72  A    between atoms: _189  and  _192
REMARK   73  A    between atoms: _192  and  _193
REMARK   74  A    between atoms: _196  and  _198
REMARK   75  A    between atoms: _198  and  _199
REMARK   76  A    between atoms: _198  and  _201
REMARK   77  A    between atoms: _201  and  _202
REMARK   78  A    between atoms: _202  and  _203
REMARK   79  A    between atoms: _208  and  _210
REMARK   80  A    between atoms: _210  and  _211
REMARK   81  A    between atoms: _210  and  _213
REMARK   82  A    between atoms: _213  and  _214
REMARK   83  A    between atoms: _217  and  _219
REMARK   84  A    between atoms: _219  and  _220
REMARK   85  A    between atoms: _219  and  _222
REMARK   86  A    between atoms: _222  and  _223
REMARK   87  A    between atoms: _228  and  _230
REMARK   88  A    between atoms: _230  and  _231
REMARK   89  A    between atoms: _234  and  _236
REMARK   90  A    between atoms: _236  and  _237
REMARK   91  A    between atoms: _239  and  _241
REMARK   92  A    between atoms: _241  and  _242
REMARK   93  A    between atoms: _244  and  _246
REMARK   94  A    between atoms: _246  and  _247
REMARK   95  A    between atoms: _246  and  _249
REMARK   96  A    between atoms: _249  and  _250
REMARK   97  A    between atoms: _253  and  _255
REMARK   98  A    between atoms: _255  and  _256
REMARK   99  A    between atoms: _255  and  _258
REMARK  100  A    between atoms: _258  and  _259
REMARK  101  A    between atoms: _262  and  _264
REMARK  102  A    between atoms: _264  and  _265
REMARK  103  A    between atoms: _264  and  _267
REMARK  104  A    between atoms: _267  and  _268
REMARK  105  A    between atoms: _273  and  _275
REMARK  106  A    between atoms: _275  and  _276
REMARK  107  A    between atoms: _275  and  _278
REMARK  108  A    between atoms: _278  and  _279
REMARK  109  A    between atoms: _282  and  _284
REMARK  110  A    between atoms: _284  and  _285
REMARK  111  A    between atoms: _284  and  _287
REMARK  112  A    between atoms: _287  and  _288
REMARK  113  A    between atoms: _288  and  _289
REMARK  114  A    between atoms: _292  and  _294
REMARK  115  A    between atoms: _294  and  _295
REMARK  116  A    between atoms: _294  and  _297
REMARK  117  A    between atoms: _300  and  _302
REMARK  118  A    between atoms: _302  and  _303
REMARK  119  A    between atoms: _302  and  _305
REMARK  120  A    between atoms: _305  and  _306
REMARK  121  A    between atoms: _311  and  _313
REMARK  122  A    between atoms: _313  and  _314
REMARK  123  A    between atoms: _313  and  _316
REMARK  124  A    between atoms: _316  and  _317
REMARK  125  A    between atoms: _320  and  _322
REMARK  126  A    between atoms: _322  and  _323
REMARK  127  A    between atoms: _322  and  _325
REMARK  128  A    between atoms: _325  and  _326
REMARK  129  A    between atoms: _328  and  _330
REMARK  130  A    between atoms: _330  and  _331
REMARK  131  A    between atoms: _330  and  _333
REMARK  132  A    between atoms: _333  and  _334
REMARK  133  A    between atoms: _339  and  _341
REMARK  134  A    between atoms: _341  and  _342
REMARK  135  A    between atoms: _341  and  _344
REMARK  136  A    between atoms: _347  and  _349
REMARK  137  A    between atoms: _349  and  _350
REMARK  138  A    between atoms: _349  and  _352
REMARK  139  A    between atoms: _352  and  _353
REMARK  140  A    between atoms: _358  and  _360
REMARK  141  A    between atoms: _360  and  _361
REMARK  142  A    between atoms: _360  and  _363
REMARK  143  A    between atoms: _363  and  _364
REMARK  144  A    between atoms: _364  and  _365
REMARK  145  A    between atoms: _365  and  _366
REMARK  146  A    between atoms: _375  and  _377
REMARK  147  A    between atoms: _377  and  _378
REMARK  148  A    between atoms: _377  and  _380
REMARK  149  A    between atoms: _380  and  _381
REMARK  150  A    between atoms: _381  and  _382
REMARK  151  A    between atoms: _385  and  _387
REMARK  152  A    between atoms: _387  and  _388
REMARK  153  A    between atoms: _387  and  _390
REMARK  154  A    between atoms: _390  and  _391
REMARK  155  A    between atoms: _397  and  _399
REMARK  156  A    between atoms: _399  and  _400
REMARK  157  A    between atoms: _399  and  _402
REMARK  158  A    between atoms: _402  and  _403
REMARK  159  A    between atoms: _403  and  _404
REMARK  160  A    between atoms: _404  and  _405
REMARK  161  A    between atoms: _414  and  _416
REMARK  162  A    between atoms: _416  and  _417
REMARK  163  A    between atoms: _416  and  _419
REMARK  164  A    between atoms: _419  and  _420
REMARK  165  A    between atoms: _420  and  _421
REMARK  166  A    between atoms: _421  and  _422
REMARK  167  A    between atoms: _431  and  _433
REMARK  168  A    between atoms: _433  and  _434
REMARK  169  A    between atoms: _433  and  _436
REMARK  170  A    between atoms: _436  and  _437
REMARK  171  A    between atoms: _442  and  _444
REMARK  172  A    between atoms: _444  and  _445
REMARK  173  A    between atoms: _444  and  _447
REMARK  174  A    between atoms: _447  and  _448
REMARK  175  A    between atoms: _450  and  _452
REMARK  176  A    between atoms: _452  and  _453
REMARK  177  A    between atoms: _452  and  _455
REMARK  178  A    between atoms: _455  and  _456
REMARK  179  A    between atoms: _459  and  _461
REMARK  180  A    between atoms: _461  and  _462
REMARK  181  A    between atoms: _461  and  _464
REMARK  182  A    between atoms: _464  and  _465
REMARK  183  A    between atoms: _468  and  _470
REMARK  184  A    between atoms: _470  and  _471
REMARK  185  A    between atoms: _470  and  _473
REMARK  186  A    between atoms: _476  and  _478
REMARK  187  A    between atoms: _478  and  _479
REMARK  188  A    between atoms: _481  and  _483
REMARK  189  A    between atoms: _483  and  _484
REMARK  190  A    between atoms: _483  and  _486
REMARK  191  A    between atoms: _486  and  _487
REMARK  192  A    between atoms: _490  and  _492
REMARK  193  A    between atoms: _492  and  _493
REMARK  194  A    between atoms: _495  and  _497
REMARK  195  A    between atoms: _497  and  _498
REMARK  196  A    between atoms: _497  and  _500
REMARK  197  A    between atoms: _500  and  _501
REMARK  198  A    between atoms: _504  and  _506
REMARK  199  A    between atoms: _506  and  _507
REMARK  200  A    between atoms: _506  and  _509
REMARK  201  A    between atoms: _509  and  _510
REMARK  202  A    between atoms: _515  and  _516
REMARK  203  A    between atoms: _518  and  _520
REMARK  204  A    between atoms: _520  and  _521
REMARK  205  A    between atoms: _520  and  _523
REMARK  206  A    between atoms: _523  and  _524
REMARK  207  A    between atoms: _529  and  _531
REMARK  208  A    between atoms: _531  and  _532
REMARK  209  A    between atoms: _531  and  _534
REMARK  210  A    between atoms: _537  and  _539
REMARK  211  A    between atoms: _539  and  _540
REMARK  212  A    between atoms: _543  and  _545
REMARK  213  A    between atoms: _545  and  _546
REMARK  214  A    between atoms: _545  and  _548
REMARK  215  A    between atoms: _548  and  _549
REMARK  216  A    between atoms: _552  and  _554
REMARK  217  A    between atoms: _554  and  _555
REMARK  218  A    between atoms: _554  and  _557
REMARK  219  A    between atoms: _557  and  _558
REMARK  220  A    between atoms: _558  and  _559
REMARK  221  A    between atoms: _559  and  _560
REMARK  222  A    between atoms: _569  and  _571
REMARK  223  A    between atoms: _571  and  _572
REMARK  224  A    between atoms: _571  and  _574
REMARK  225  A    between atoms: _574  and  _575
REMARK  226  A    between atoms: _578  and  _580
REMARK  227  A    between atoms: _580  and  _581
REMARK  228  A    between atoms: _584  and  _586
REMARK  229  A    between atoms: _586  and  _587
REMARK  230  A    between atoms: _590  and  _592
REMARK  231  A    between atoms: _592  and  _593
REMARK  232  A    between atoms: _592  and  _595
REMARK  233  A    between atoms: _595  and  _596
REMARK  234  A    between atoms: _596  and  _597
REMARK                            x       y       z     vdW  Elec       q    Type
REMARK                         _______ _______ _______ _____ _____    ______ ____
ROOT
ATOM      1  O   HOH     1       6.714   7.985  38.257  0.00  0.00    +0.000 OA
ENDROOT
TORSDOF 0
REMARK  Name = ../refined-set-2016/2xb8/2xb8_pocket.pdb
REMARK  234 active torsions:
REMARK  status: ('A' for Active; 'I' for Inactive)
REMARK    1  A    between atoms: _1  and  _3
REMARK    2  A    between atoms: _3  and  _4
REMARK    3  A    between atoms: _3  and  _6
REMARK    4  A    between atoms: _6  and  _7
REMARK    5  A    between atoms: _12  and  _14
REMARK    6  A    between atoms: _14  and  _15
REMARK    7  A    between atoms: _18  and  _19
REMARK    8  A    between atoms: _24  and  _26
REMARK    9  A    between atoms: _26  and  _27
REMARK   10  A    between atoms: _26  and  _29
REMARK   11  A    between atoms: _29  and  _30
REMARK   12  A    between atoms: _35  and  _37
REMARK   13  A    between atoms: _37  and  _38
REMARK   14  A    between atoms: _37  and  _40
REMARK   15  A    between atoms: _40  and  _41
REMARK   16  A    between atoms: _44  and  _46
REMARK   17  A    between atoms: _46  and  _47
REMARK   18  A    between atoms: _49  and  _51
REMARK   19  A    between atoms: _51  and  _52
REMARK   20  A    between atoms: _51  and  _54
REMARK   21  A    between atoms: _54  and  _55
REMARK   22  A    between atoms: _55  and  _56
REMARK   23  A    between atoms: _56  and  _57
REMARK   24  A    between atoms: _66  and  _68
REMARK   25  A    between atoms: _68  and  _69
REMARK   26  A    between atoms: _68  and  _71
REMARK   27  A    between atoms: _71  and  _72
REMARK   28  A    between atoms: _75  and  _77
REMARK   29  A    between atoms: _77  and  _78
REMARK   30  A    between atoms: _80  and  _82
REMARK   31  A    between atoms: _82  and  _83
REMARK   32  A    between atoms: _82  and  _85
REMARK   33  A    between atoms: _85  and  _86
REMARK   34  A    between atoms: _86  and  _87
REMARK   35  A    between atoms: _87  and  _88
REMARK   36  A    between atoms: _97  and  _99
REMARK   37  A    between atoms: _99  and  _100
REMARK   38  A    between atoms: _99  and  _102
REMARK   39  A    between atoms: _102  and  _103
REMARK   40  A    between atoms: _103  and  _104
REMARK   41  A    between atoms: _104  and  _105
REMARK   42  A    between atoms: _114  and  _116
REMARK   43  A    between atoms: _116  and  _117
REMARK   44  A    between atoms: _116  and  _119
REMARK   45  A    between atoms: _119  and  _120
REMARK   46  A    between atoms: _120  and  _121
REMARK   47  A    between atoms: _125  and  _126
REMARK   48  A    between atoms: _131  and  _133
REMARK   49  A    between atoms: _133  and  _134
REMARK   50  A    between atoms: _133  and  _136
REMARK   51  A    between atoms: _139  and  _141
REMARK   52  A    between atoms: _141  and  _142
REMARK   53  A    between atoms: _141  and  _144
REMARK   54  A    between atoms: _144  and  _145
REMARK   55  A    between atoms: _150  and  _151
REMARK   56  A    between atoms: _153  and  _155
REMARK   57  A    between atoms: _155  and  _156
REMARK   58  A    between atoms: _158  and  _160
REMARK   59  A    between atoms: _160  and  _161
REMARK   60  A    between atoms: _160  and  _163
REMARK   61  A    between atoms: _163  and  _164
REMARK   62  A    between atoms: _167  and  _169
REMARK   63  A    between atoms: _169  and  _170
REMARK   64  A    between atoms: _169  and  _172
REMARK   65  A    between atoms: _172  and  _173
REMARK   66  A    between atoms: _176  and  _178
REMARK   67  A    between atoms: _178  and  _179
REMARK   68  A    between atoms: _178  and  _181
REMARK   69  A    between atoms: _181  and  _182
REMARK   70  A    between atoms: _187  and  _189
REMARK   71  A    between atoms: _189  and  _190
REMARK   72  A    between atoms: _189  and  _192
REMARK   73  A    between atoms: _192  and  _193
REMARK   74  A    between atoms: _196  and  _198
REMARK   75  A    between atoms: _198  and  _199
REMARK   76  A    between atoms: _198  and  _201
REMARK   77  A    between atoms: _201  and  _202
REMARK   78  A    between atoms: _202  and  _203
REMARK   79  A    between atoms: _208  and  _210
REMARK   80  A    between atoms: _210  and  _211
REMARK   81  A    between atoms: _210  and  _213
REMARK   82  A    between atoms: _213  and  _214
REMARK   83  A    between atoms: _217  and  _219
REMARK   84  A    between atoms: _219  and  _220
REMARK   85  A    between atoms: _219  and  _222
REMARK   86  A    between atoms: _222  and  _223
REMARK   87  A    between atoms: _228  and  _230
REMARK   88  A    between atoms: _230  and  _231
REMARK   89  A    between atoms: _234  and  _236
REMARK   90  A    between atoms: _236  and  _237
REMARK   91  A    between atoms: _239  and  _241
REMARK   92  A    between atoms: _241  and  _242
REMARK   93  A    between atoms: _244  and  _246
REMARK   94  A    between atoms: _246  and  _247
REMARK   95  A    between atoms: _246  and  _249
REMARK   96  A    between atoms: _249  and  _250
REMARK   97  A    between atoms: _253  and  _255
REMARK   98  A    between atoms: _255  and  _256
REMARK   99  A    between atoms: _255  and  _258
REMARK  100  A    between atoms: _258  and  _259
REMARK  101  A    between atoms: _262  and  _264
REMARK  102  A    between atoms: _264  and  _265
REMARK  103  A    between atoms: _264  and  _267
REMARK  104  A    between atoms: _267  and  _268
REMARK  105  A    between atoms: _273  and  _275
REMARK  106  A    between atoms: _275  and  _276
REMARK  107  A    between atoms: _275  and  _278
REMARK  108  A    between atoms: _278  and  _279
REMARK  109  A    between atoms: _282  and  _284
REMARK  110  A    between atoms: _284  and  _285
REMARK  111  A    between atoms: _284  and  _287
REMARK  112  A    between atoms: _287  and  _288
REMARK  113  A    between atoms: _288  and  _289
REMARK  114  A    between atoms: _292  and  _294
REMARK  115  A    between atoms: _294  and  _295
REMARK  116  A    between atoms: _294  and  _297
REMARK  117  A    between atoms: _300  and  _302
REMARK  118  A    between atoms: _302  and  _303
REMARK  119  A    between atoms: _302  and  _305
REMARK  120  A    between atoms: _305  and  _306
REMARK  121  A    between atoms: _311  and  _313
REMARK  122  A    between atoms: _313  and  _314
REMARK  123  A    between atoms: _313  and  _316
REMARK  124  A    between atoms: _316  and  _317
REMARK  125  A    between atoms: _320  and  _322
REMARK  126  A    between atoms: _322  and  _323
REMARK  127  A    between atoms: _322  and  _325
REMARK  128  A    between atoms: _325  and  _326
REMARK  129  A    between atoms: _328  and  _330
REMARK  130  A    between atoms: _330  and  _331
REMARK  131  A    between atoms: _330  and  _333
REMARK  132  A    between atoms: _333  and  _334
REMARK  133  A    between atoms: _339  and  _341
REMARK  134  A    between atoms: _341  and  _342
REMARK  135  A    between atoms: _341  and  _344
REMARK  136  A    between atoms: _347  and  _349
REMARK  137  A    between atoms: _349  and  _350
REMARK  138  A    between atoms: _349  and  _352
REMARK  139  A    between atoms: _352  and  _353
REMARK  140  A    between atoms: _358  and  _360
REMARK  141  A    between atoms: _360  and  _361
REMARK  142  A    between atoms: _360  and  _363
REMARK  143  A    between atoms: _363  and  _364
REMARK  144  A    between atoms: _364  and  _365
REMARK  145  A    between atoms: _365  and  _366
REMARK  146  A    between atoms: _375  and  _377
REMARK  147  A    between atoms: _377  and  _378
REMARK  148  A    between atoms: _377  and  _380
REMARK  149  A    between atoms: _380  and  _381
REMARK  150  A    between atoms: _381  and  _382
REMARK  151  A    between atoms: _385  and  _387
REMARK  152  A    between atoms: _387  and  _388
REMARK  153  A    between atoms: _387  and  _390
REMARK  154  A    between atoms: _390  and  _391
REMARK  155  A    between atoms: _397  and  _399
REMARK  156  A    between atoms: _399  and  _400
REMARK  157  A    between atoms: _399  and  _402
REMARK  158  A    between atoms: _402  and  _403
REMARK  159  A    between atoms: _403  and  _404
REMARK  160  A    between atoms: _404  and  _405
REMARK  161  A    between atoms: _414  and  _416
REMARK  162  A    between atoms: _416  and  _417
REMARK  163  A    between atoms: _416  and  _419
REMARK  164  A    between atoms: _419  and  _420
REMARK  165  A    between atoms: _420  and  _421
REMARK  166  A    between atoms: _421  and  _422
REMARK  167  A    between atoms: _431  and  _433
REMARK  168  A    between atoms: _433  and  _434
REMARK  169  A    between atoms: _433  and  _436
REMARK  170  A    between atoms: _436  and  _437
REMARK  171  A    between atoms: _442  and  _444
REMARK  172  A    between atoms: _444  and  _445
REMARK  173  A    between atoms: _444  and  _447
REMARK  174  A    between atoms: _447  and  _448
REMARK  175  A    between atoms: _450  and  _452
REMARK  176  A    between atoms: _452  and  _453
REMARK  177  A    between atoms: _452  and  _455
REMARK  178  A    between atoms: _455  and  _456
REMARK  179  A    between atoms: _459  and  _461
REMARK  180  A    between atoms: _461  and  _462
REMARK  181  A    between atoms: _461  and  _464
REMARK  182  A    between atoms: _464  and  _465
REMARK  183  A    between atoms: _468  and  _470
REMARK  184  A    between atoms: _470  and  _471
REMARK  185  A    between atoms: _470  and  _473
REMARK  186  A    between atoms: _476  and  _478
REMARK  187  A    between atoms: _478  and  _479
REMARK  188  A    between atoms: _481  and  _483
REMARK  189  A    between atoms: _483  and  _484
REMARK  190  A    between atoms: _483  and  _486
REMARK  191  A    between atoms: _486  and  _487
REMARK  192  A    between atoms: _490  and  _492
REMARK  193  A    between atoms: _492  and  _493
REMARK  194  A    between atoms: _495  and  _497
REMARK  195  A    between atoms: _497  and  _498
REMARK  196  A    between atoms: _497  and  _500
REMARK  197  A    between atoms: _500  and  _501
REMARK  198  A    between atoms: _504  and  _506
REMARK  199  A    between atoms: _506  and  _507
REMARK  200  A    between atoms: _506  and  _509
REMARK  201  A    between atoms: _509  and  _510
REMARK  202  A    between atoms: _515  and  _516
REMARK  203  A    between atoms: _518  and  _520
REMARK  204  A    between atoms: _520  and  _521
REMARK  205  A    between atoms: _520  and  _523
REMARK  206  A    between atoms: _523  and  _524
REMARK  207  A    between atoms: _529  and  _531
REMARK  208  A    between atoms: _531  and  _532
REMARK  209  A    between atoms: _531  and  _534
REMARK  210  A    between atoms: _537  and  _539
REMARK  211  A    between atoms: _539  and  _540
REMARK  212  A    between atoms: _543  and  _545
REMARK  213  A    between atoms: _545  and  _546
REMARK  214  A    between atoms: _545  and  _548
REMARK  215  A    between atoms: _548  and  _549
REMARK  216  A    between atoms: _552  and  _554
REMARK  217  A    between atoms: _554  and  _555
REMARK  218  A    between atoms: _554  and  _557
REMARK  219  A    between atoms: _557  and  _558
REMARK  220  A    between atoms: _558  and  _559
REMARK  221  A    between atoms: _559  and  _560
REMARK  222  A    between atoms: _569  and  _571
REMARK  223  A    between atoms: _571  and  _572
REMARK  224  A    between atoms: _571  and  _574
REMARK  225  A    between atoms: _574  and  _575
REMARK  226  A    between atoms: _578  and  _580
REMARK  227  A    between atoms: _580  and  _581
REMARK  228  A    between atoms: _584  and  _586
REMARK  229  A    between atoms: _586  and  _587
REMARK  230  A    between atoms: _590  and  _592
REMARK  231  A    between atoms: _592  and  _593
REMARK  232  A    between atoms: _592  and  _595
REMARK  233  A    between atoms: _595  and  _596
REMARK  234  A    between atoms: _596  and  _597
REMARK                            x       y       z     vdW  Elec       q    Type
REMARK                         _______ _______ _______ _____ _____    ______ ____
ROOT
ATOM      1  O   HOH     1       4.047   3.352  41.139  0.00  0.00    +0.000 OA
ENDROOT
TORSDOF 0
REMARK  Name = ../refined-set-2016/2xb8/2xb8_pocket.pdb
REMARK  234 active torsions:
REMARK  status: ('A' for Active; 'I' for Inactive)
REMARK    1  A    between atoms: _1  and  _3
REMARK    2  A    between atoms: _3  and  _4
REMARK    3  A    between atoms: _3  and  _6
REMARK    4  A    between atoms: _6  and  _7
REMARK    5  A    between atoms: _12  and  _14
REMARK    6  A    between atoms: _14  and  _15
REMARK    7  A    between atoms: _18  and  _19
REMARK    8  A    between atoms: _24  and  _26
REMARK    9  A    between atoms: _26  and  _27
REMARK   10  A    between atoms: _26  and  _29
REMARK   11  A    between atoms: _29  and  _30
REMARK   12  A    between atoms: _35  and  _37
REMARK   13  A    between atoms: _37  and  _38
REMARK   14  A    between atoms: _37  and  _40
REMARK   15  A    between atoms: _40  and  _41
REMARK   16  A    between atoms: _44  and  _46
REMARK   17  A    between atoms: _46  and  _47
REMARK   18  A    between atoms: _49  and  _51
REMARK   19  A    between atoms: _51  and  _52
REMARK   20  A    between atoms: _51  and  _54
REMARK   21  A    between atoms: _54  and  _55
REMARK   22  A    between atoms: _55  and  _56
REMARK   23  A    between atoms: _56  and  _57
REMARK   24  A    between atoms: _66  and  _68
REMARK   25  A    between atoms: _68  and  _69
REMARK   26  A    between atoms: _68  and  _71
REMARK   27  A    between atoms: _71  and  _72
REMARK   28  A    between atoms: _75  and  _77
REMARK   29  A    between atoms: _77  and  _78
REMARK   30  A    between atoms: _80  and  _82
REMARK   31  A    between atoms: _82  and  _83
REMARK   32  A    between atoms: _82  and  _85
REMARK   33  A    between atoms: _85  and  _86
REMARK   34  A    between atoms: _86  and  _87
REMARK   35  A    between atoms: _87  and  _88
REMARK   36  A    between atoms: _97  and  _99
REMARK   37  A    between atoms: _99  and  _100
REMARK   38  A    between atoms: _99  and  _102
REMARK   39  A    between atoms: _102  and  _103
REMARK   40  A    between atoms: _103  and  _104
REMARK   41  A    between atoms: _104  and  _105
REMARK   42  A    between atoms: _114  and  _116
REMARK   43  A    between atoms: _116  and  _117
REMARK   44  A    between atoms: _116  and  _119
REMARK   45  A    between atoms: _119  and  _120
REMARK   46  A    between atoms: _120  and  _121
REMARK   47  A    between atoms: _125  and  _126
REMARK   48  A    between atoms: _131  and  _133
REMARK   49  A    between atoms: _133  and  _134
REMARK   50  A    between atoms: _133  and  _136
REMARK   51  A    between atoms: _139  and  _141
REMARK   52  A    between atoms: _141  and  _142
REMARK   53  A    between atoms: _141  and  _144
REMARK   54  A    between atoms: _144  and  _145
REMARK   55  A    between atoms: _150  and  _151
REMARK   56  A    between atoms: _153  and  _155
REMARK   57  A    between atoms: _155  and  _156
REMARK   58  A    between atoms: _158  and  _160
REMARK   59  A    between atoms: _160  and  _161
REMARK   60  A    between atoms: _160  and  _163
REMARK   61  A    between atoms: _163  and  _164
REMARK   62  A    between atoms: _167  and  _169
REMARK   63  A    between atoms: _169  and  _170
REMARK   64  A    between atoms: _169  and  _172
REMARK   65  A    between atoms: _172  and  _173
REMARK   66  A    between atoms: _176  and  _178
REMARK   67  A    between atoms: _178  and  _179
REMARK   68  A    between atoms: _178  and  _181
REMARK   69  A    between atoms: _181  and  _182
REMARK   70  A    between atoms: _187  and  _189
REMARK   71  A    between atoms: _189  and  _190
REMARK   72  A    between atoms: _189  and  _192
REMARK   73  A    between atoms: _192  and  _193
REMARK   74  A    between atoms: _196  and  _198
REMARK   75  A    between atoms: _198  and  _199
REMARK   76  A    between atoms: _198  and  _201
REMARK   77  A    between atoms: _201  and  _202
REMARK   78  A    between atoms: _202  and  _203
REMARK   79  A    between atoms: _208  and  _210
REMARK   80  A    between atoms: _210  and  _211
REMARK   81  A    between atoms: _210  and  _213
REMARK   82  A    between atoms: _213  and  _214
REMARK   83  A    between atoms: _217  and  _219
REMARK   84  A    between atoms: _219  and  _220
REMARK   85  A    between atoms: _219  and  _222
REMARK   86  A    between atoms: _222  and  _223
REMARK   87  A    between atoms: _228  and  _230
REMARK   88  A    between atoms: _230  and  _231
REMARK   89  A    between atoms: _234  and  _236
REMARK   90  A    between atoms: _236  and  _237
REMARK   91  A    between atoms: _239  and  _241
REMARK   92  A    between atoms: _241  and  _242
REMARK   93  A    between atoms: _244  and  _246
REMARK   94  A    between atoms: _246  and  _247
REMARK   95  A    between atoms: _246  and  _249
REMARK   96  A    between atoms: _249  and  _250
REMARK   97  A    between atoms: _253  and  _255
REMARK   98  A    between atoms: _255  and  _256
REMARK   99  A    between atoms: _255  and  _258
REMARK  100  A    between atoms: _258  and  _259
REMARK  101  A    between atoms: _262  and  _264
REMARK  102  A    between atoms: _264  and  _265
REMARK  103  A    between atoms: _264  and  _267
REMARK  104  A    between atoms: _267  and  _268
REMARK  105  A    between atoms: _273  and  _275
REMARK  106  A    between atoms: _275  and  _276
REMARK  107  A    between atoms: _275  and  _278
REMARK  108  A    between atoms: _278  and  _279
REMARK  109  A    between atoms: _282  and  _284
REMARK  110  A    between atoms: _284  and  _285
REMARK  111  A    between atoms: _284  and  _287
REMARK  112  A    between atoms: _287  and  _288
REMARK  113  A    between atoms: _288  and  _289
REMARK  114  A    between atoms: _292  and  _294
REMARK  115  A    between atoms: _294  and  _295
REMARK  116  A    between atoms: _294  and  _297
REMARK  117  A    between atoms: _300  and  _302
REMARK  118  A    between atoms: _302  and  _303
REMARK  119  A    between atoms: _302  and  _305
REMARK  120  A    between atoms: _305  and  _306
REMARK  121  A    between atoms: _311  and  _313
REMARK  122  A    between atoms: _313  and  _314
REMARK  123  A    between atoms: _313  and  _316
REMARK  124  A    between atoms: _316  and  _317
REMARK  125  A    between atoms: _320  and  _322
REMARK  126  A    between atoms: _322  and  _323
REMARK  127  A    between atoms: _322  and  _325
REMARK  128  A    between atoms: _325  and  _326
REMARK  129  A    between atoms: _328  and  _330
REMARK  130  A    between atoms: _330  and  _331
REMARK  131  A    between atoms: _330  and  _333
REMARK  132  A    between atoms: _333  and  _334
REMARK  133  A    between atoms: _339  and  _341
REMARK  134  A    between atoms: _341  and  _342
REMARK  135  A    between atoms: _341  and  _344
REMARK  136  A    between atoms: _347  and  _349
REMARK  137  A    between atoms: _349  and  _350
REMARK  138  A    between atoms: _349  and  _352
REMARK  139  A    between atoms: _352  and  _353
REMARK  140  A    between atoms: _358  and  _360
REMARK  141  A    between atoms: _360  and  _361
REMARK  142  A    between atoms: _360  and  _363
REMARK  143  A    between atoms: _363  and  _364
REMARK  144  A    between atoms: _364  and  _365
REMARK  145  A    between atoms: _365  and  _366
REMARK  146  A    between atoms: _375  and  _377
REMARK  147  A    between atoms: _377  and  _378
REMARK  148  A    between atoms: _377  and  _380
REMARK  149  A    between atoms: _380  and  _381
REMARK  150  A    between atoms: _381  and  _382
REMARK  151  A    between atoms: _385  and  _387
REMARK  152  A    between atoms: _387  and  _388
REMARK  153  A    between atoms: _387  and  _390
REMARK  154  A    between atoms: _390  and  _391
REMARK  155  A    between atoms: _397  and  _399
REMARK  156  A    between atoms: _399  and  _400
REMARK  157  A    between atoms: _399  and  _402
REMARK  158  A    between atoms: _402  and  _403
REMARK  159  A    between atoms: _403  and  _404
REMARK  160  A    between atoms: _404  and  _405
REMARK  161  A    between atoms: _414  and  _416
REMARK  162  A    between atoms: _416  and  _417
REMARK  163  A    between atoms: _416  and  _419
REMARK  164  A    between atoms: _419  and  _420
REMARK  165  A    between atoms: _420  and  _421
REMARK  166  A    between atoms: _421  and  _422
REMARK  167  A    between atoms: _431  and  _433
REMARK  168  A    between atoms: _433  and  _434
REMARK  169  A    between atoms: _433  and  _436
REMARK  170  A    between atoms: _436  and  _437
REMARK  171  A    between atoms: _442  and  _444
REMARK  172  A    between atoms: _444  and  _445
REMARK  173  A    between atoms: _444  and  _447
REMARK  174  A    between atoms: _447  and  _448
REMARK  175  A    between atoms: _450  and  _452
REMARK  176  A    between atoms: _452  and  _453
REMARK  177  A    between atoms: _452  and  _455
REMARK  178  A    between atoms: _455  and  _456
REMARK  179  A    between atoms: _459  and  _461
REMARK  180  A    between atoms: _461  and  _462
REMARK  181  A    between atoms: _461  and  _464
REMARK  182  A    between atoms: _464  and  _465
REMARK  183  A    between atoms: _468  and  _470
REMARK  184  A    between atoms: _470  and  _471
REMARK  185  A    between atoms: _470  and  _473
REMARK  186  A    between atoms: _476  and  _478
REMARK  187  A    between atoms: _478  and  _479
REMARK  188  A    between atoms: _481  and  _483
REMARK  189  A    between atoms: _483  and  _484
REMARK  190  A    between atoms: _483  and  _486
REMARK  191  A    between atoms: _486  and  _487
REMARK  192  A    between atoms: _490  and  _492
REMARK  193  A    between atoms: _492  and  _493
REMARK  194  A    between atoms: _495  and  _497
REMARK  195  A    between atoms: _497  and  _498
REMARK  196  A    between atoms: _497  and  _500
REMARK  197  A    between atoms: _500  and  _501
REMARK  198  A    between atoms: _504  and  _506
REMARK  199  A    between atoms: _506  and  _507
REMARK  200  A    between atoms: _506  and  _509
REMARK  201  A    between atoms: _509  and  _510
REMARK  202  A    between atoms: _515  and  _516
REMARK  203  A    between atoms: _518  and  _520
REMARK  204  A    between atoms: _520  and  _521
REMARK  205  A    between atoms: _520  and  _523
REMARK  206  A    between atoms: _523  and  _524
REMARK  207  A    between atoms: _529  and  _531
REMARK  208  A    between atoms: _531  and  _532
REMARK  209  A    between atoms: _531  and  _534
REMARK  210  A    between atoms: _537  and  _539
REMARK  211  A    between atoms: _539  and  _540
REMARK  212  A    between atoms: _543  and  _545
REMARK  213  A    between atoms: _545  and  _546
REMARK  214  A    between atoms: _545  and  _548
REMARK  215  A    between atoms: _548  and  _549
REMARK  216  A    between atoms: _552  and  _554
REMARK  217  A    between atoms: _554  and  _555
REMARK  218  A    between atoms: _554  and  _557
REMARK  219  A    between atoms: _557  and  _558
REMARK  220  A    between atoms: _558  and  _559
REMARK  221  A    between atoms: _559  and  _560
REMARK  222  A    between atoms: _569  and  _571
REMARK  223  A    between atoms: _571  and  _572
REMARK  224  A    between atoms: _571  and  _574
REMARK  225  A    between atoms: _574  and  _575
REMARK  226  A    between atoms: _578  and  _580
REMARK  227  A    between atoms: _580  and  _581
REMARK  228  A    between atoms: _584  and  _586
REMARK  229  A    between atoms: _586  and  _587
REMARK  230  A    between atoms: _590  and  _592
REMARK  231  A    between atoms: _592  and  _593
REMARK  232  A    between atoms: _592  and  _595
REMARK  233  A    between atoms: _595  and  _596
REMARK  234  A    between atoms: _596  and  _597
REMARK                            x       y       z     vdW  Elec       q    Type
REMARK                         _______ _______ _______ _____ _____    ______ ____
ROOT
ATOM      1  O   HOH     1       9.789  -6.413  37.081  0.00  0.00    +0.000 OA
ENDROOT
TORSDOF 0
REMARK  Name = ../refined-set-2016/2xb8/2xb8_pocket.pdb
REMARK  234 active torsions:
REMARK  status: ('A' for Active; 'I' for Inactive)
REMARK    1  A    between atoms: _1  and  _3
REMARK    2  A    between atoms: _3  and  _4
REMARK    3  A    between atoms: _3  and  _6
REMARK    4  A    between atoms: _6  and  _7
REMARK    5  A    between atoms: _12  and  _14
REMARK    6  A    between atoms: _14  and  _15
REMARK    7  A    between atoms: _18  and  _19
REMARK    8  A    between atoms: _24  and  _26
REMARK    9  A    between atoms: _26  and  _27
REMARK   10  A    between atoms: _26  and  _29
REMARK   11  A    between atoms: _29  and  _30
REMARK   12  A    between atoms: _35  and  _37
REMARK   13  A    between atoms: _37  and  _38
REMARK   14  A    between atoms: _37  and  _40
REMARK   15  A    between atoms: _40  and  _41
REMARK   16  A    between atoms: _44  and  _46
REMARK   17  A    between atoms: _46  and  _47
REMARK   18  A    between atoms: _49  and  _51
REMARK   19  A    between atoms: _51  and  _52
REMARK   20  A    between atoms: _51  and  _54
REMARK   21  A    between atoms: _54  and  _55
REMARK   22  A    between atoms: _55  and  _56
REMARK   23  A    between atoms: _56  and  _57
REMARK   24  A    between atoms: _66  and  _68
REMARK   25  A    between atoms: _68  and  _69
REMARK   26  A    between atoms: _68  and  _71
REMARK   27  A    between atoms: _71  and  _72
REMARK   28  A    between atoms: _75  and  _77
REMARK   29  A    between atoms: _77  and  _78
REMARK   30  A    between atoms: _80  and  _82
REMARK   31  A    between atoms: _82  and  _83
REMARK   32  A    between atoms: _82  and  _85
REMARK   33  A    between atoms: _85  and  _86
REMARK   34  A    between atoms: _86  and  _87
REMARK   35  A    between atoms: _87  and  _88
REMARK   36  A    between atoms: _97  and  _99
REMARK   37  A    between atoms: _99  and  _100
REMARK   38  A    between atoms: _99  and  _102
REMARK   39  A    between atoms: _102  and  _103
REMARK   40  A    between atoms: _103  and  _104
REMARK   41  A    between atoms: _104  and  _105
REMARK   42  A    between atoms: _114  and  _116
REMARK   43  A    between atoms: _116  and  _117
REMARK   44  A    between atoms: _116  and  _119
REMARK   45  A    between atoms: _119  and  _120
REMARK   46  A    between atoms: _120  and  _121
REMARK   47  A    between atoms: _125  and  _126
REMARK   48  A    between atoms: _131  and  _133
REMARK   49  A    between atoms: _133  and  _134
REMARK   50  A    between atoms: _133  and  _136
REMARK   51  A    between atoms: _139  and  _141
REMARK   52  A    between atoms: _141  and  _142
REMARK   53  A    between atoms: _141  and  _144
REMARK   54  A    between atoms: _144  and  _145
REMARK   55  A    between atoms: _150  and  _151
REMARK   56  A    between atoms: _153  and  _155
REMARK   57  A    between atoms: _155  and  _156
REMARK   58  A    between atoms: _158  and  _160
REMARK   59  A    between atoms: _160  and  _161
REMARK   60  A    between atoms: _160  and  _163
REMARK   61  A    between atoms: _163  and  _164
REMARK   62  A    between atoms: _167  and  _169
REMARK   63  A    between atoms: _169  and  _170
REMARK   64  A    between atoms: _169  and  _172
REMARK   65  A    between atoms: _172  and  _173
REMARK   66  A    between atoms: _176  and  _178
REMARK   67  A    between atoms: _178  and  _179
REMARK   68  A    between atoms: _178  and  _181
REMARK   69  A    between atoms: _181  and  _182
REMARK   70  A    between atoms: _187  and  _189
REMARK   71  A    between atoms: _189  and  _190
REMARK   72  A    between atoms: _189  and  _192
REMARK   73  A    between atoms: _192  and  _193
REMARK   74  A    between atoms: _196  and  _198
REMARK   75  A    between atoms: _198  and  _199
REMARK   76  A    between atoms: _198  and  _201
REMARK   77  A    between atoms: _201  and  _202
REMARK   78  A    between atoms: _202  and  _203
REMARK   79  A    between atoms: _208  and  _210
REMARK   80  A    between atoms: _210  and  _211
REMARK   81  A    between atoms: _210  and  _213
REMARK   82  A    between atoms: _213  and  _214
REMARK   83  A    between atoms: _217  and  _219
REMARK   84  A    between atoms: _219  and  _220
REMARK   85  A    between atoms: _219  and  _222
REMARK   86  A    between atoms: _222  and  _223
REMARK   87  A    between atoms: _228  and  _230
REMARK   88  A    between atoms: _230  and  _231
REMARK   89  A    between atoms: _234  and  _236
REMARK   90  A    between atoms: _236  and  _237
REMARK   91  A    between atoms: _239  and  _241
REMARK   92  A    between atoms: _241  and  _242
REMARK   93  A    between atoms: _244  and  _246
REMARK   94  A    between atoms: _246  and  _247
REMARK   95  A    between atoms: _246  and  _249
REMARK   96  A    between atoms: _249  and  _250
REMARK   97  A    between atoms: _253  and  _255
REMARK   98  A    between atoms: _255  and  _256
REMARK   99  A    between atoms: _255  and  _258
REMARK  100  A    between atoms: _258  and  _259
REMARK  101  A    between atoms: _262  and  _264
REMARK  102  A    between atoms: _264  and  _265
REMARK  103  A    between atoms: _264  and  _267
REMARK  104  A    between atoms: _267  and  _268
REMARK  105  A    between atoms: _273  and  _275
REMARK  106  A    between atoms: _275  and  _276
REMARK  107  A    between atoms: _275  and  _278
REMARK  108  A    between atoms: _278  and  _279
REMARK  109  A    between atoms: _282  and  _284
REMARK  110  A    between atoms: _284  and  _285
REMARK  111  A    between atoms: _284  and  _287
REMARK  112  A    between atoms: _287  and  _288
REMARK  113  A    between atoms: _288  and  _289
REMARK  114  A    between atoms: _292  and  _294
REMARK  115  A    between atoms: _294  and  _295
REMARK  116  A    between atoms: _294  and  _297
REMARK  117  A    between atoms: _300  and  _302
REMARK  118  A    between atoms: _302  and  _303
REMARK  119  A    between atoms: _302  and  _305
REMARK  120  A    between atoms: _305  and  _306
REMARK  121  A    between atoms: _311  and  _313
REMARK  122  A    between atoms: _313  and  _314
REMARK  123  A    between atoms: _313  and  _316
REMARK  124  A    between atoms: _316  and  _317
REMARK  125  A    between atoms: _320  and  _322
REMARK  126  A    between atoms: _322  and  _323
REMARK  127  A    between atoms: _322  and  _325
REMARK  128  A    between atoms: _325  and  _326
REMARK  129  A    between atoms: _328  and  _330
REMARK  130  A    between atoms: _330  and  _331
REMARK  131  A    between atoms: _330  and  _333
REMARK  132  A    between atoms: _333  and  _334
REMARK  133  A    between atoms: _339  and  _341
REMARK  134  A    between atoms: _341  and  _342
REMARK  135  A    between atoms: _341  and  _344
REMARK  136  A    between atoms: _347  and  _349
REMARK  137  A    between atoms: _349  and  _350
REMARK  138  A    between atoms: _349  and  _352
REMARK  139  A    between atoms: _352  and  _353
REMARK  140  A    between atoms: _358  and  _360
REMARK  141  A    between atoms: _360  and  _361
REMARK  142  A    between atoms: _360  and  _363
REMARK  143  A    between atoms: _363  and  _364
REMARK  144  A    between atoms: _364  and  _365
REMARK  145  A    between atoms: _365  and  _366
REMARK  146  A    between atoms: _375  and  _377
REMARK  147  A    between atoms: _377  and  _378
REMARK  148  A    between atoms: _377  and  _380
REMARK  149  A    between atoms: _380  and  _381
REMARK  150  A    between atoms: _381  and  _382
REMARK  151  A    between atoms: _385  and  _387
REMARK  152  A    between atoms: _387  and  _388
REMARK  153  A    between atoms: _387  and  _390
REMARK  154  A    between atoms: _390  and  _391
REMARK  155  A    between atoms: _397  and  _399
REMARK  156  A    between atoms: _399  and  _400
REMARK  157  A    between atoms: _399  and  _402
REMARK  158  A    between atoms: _402  and  _403
REMARK  159  A    between atoms: _403  and  _404
REMARK  160  A    between atoms: _404  and  _405
REMARK  161  A    between atoms: _414  and  _416
REMARK  162  A    between atoms: _416  and  _417
REMARK  163  A    between atoms: _416  and  _419
REMARK  164  A    between atoms: _419  and  _420
REMARK  165  A    between atoms: _420  and  _421
REMARK  166  A    between atoms: _421  and  _422
REMARK  167  A    between atoms: _431  and  _433
REMARK  168  A    between atoms: _433  and  _434
REMARK  169  A    between atoms: _433  and  _436
REMARK  170  A    between atoms: _436  and  _437
REMARK  171  A    between atoms: _442  and  _444
REMARK  172  A    between atoms: _444  and  _445
REMARK  173  A    between atoms: _444  and  _447
REMARK  174  A    between atoms: _447  and  _448
REMARK  175  A    between atoms: _450  and  _452
REMARK  176  A    between atoms: _452  and  _453
REMARK  177  A    between atoms: _452  and  _455
REMARK  178  A    between atoms: _455  and  _456
REMARK  179  A    between atoms: _459  and  _461
REMARK  180  A    between atoms: _461  and  _462
REMARK  181  A    between atoms: _461  and  _464
REMARK  182  A    between atoms: _464  and  _465
REMARK  183  A    between atoms: _468  and  _470
REMARK  184  A    between atoms: _470  and  _471
REMARK  185  A    between atoms: _470  and  _473
REMARK  186  A    between atoms: _476  and  _478
REMARK  187  A    between atoms: _478  and  _479
REMARK  188  A    between atoms: _481  and  _483
REMARK  189  A    between atoms: _483  and  _484
REMARK  190  A    between atoms: _483  and  _486
REMARK  191  A    between atoms: _486  and  _487
REMARK  192  A    between atoms: _490  and  _492
REMARK  193  A    between atoms: _492  and  _493
REMARK  194  A    between atoms: _495  and  _497
REMARK  195  A    between atoms: _497  and  _498
REMARK  196  A    between atoms: _497  and  _500
REMARK  197  A    between atoms: _500  and  _501
REMARK  198  A    between atoms: _504  and  _506
REMARK  199  A    between atoms: _506  and  _507
REMARK  200  A    between atoms: _506  and  _509
REMARK  201  A    between atoms: _509  and  _510
REMARK  202  A    between atoms: _515  and  _516
REMARK  203  A    between atoms: _518  and  _520
REMARK  204  A    between atoms: _520  and  _521
REMARK  205  A    between atoms: _520  and  _523
REMARK  206  A    between atoms: _523  and  _524
REMARK  207  A    between atoms: _529  and  _531
REMARK  208  A    between atoms: _531  and  _532
REMARK  209  A    between atoms: _531  and  _534
REMARK  210  A    between atoms: _537  and  _539
REMARK  211  A    between atoms: _539  and  _540
REMARK  212  A    between atoms: _543  and  _545
REMARK  213  A    between atoms: _545  and  _546
REMARK  214  A    between atoms: _545  and  _548
REMARK  215  A    between atoms: _548  and  _549
REMARK  216  A    between atoms: _552  and  _554
REMARK  217  A    between atoms: _554  and  _555
REMARK  218  A    between atoms: _554  and  _557
REMARK  219  A    between atoms: _557  and  _558
REMARK  220  A    between atoms: _558  and  _559
REMARK  221  A    between atoms: _559  and  _560
REMARK  222  A    between atoms: _569  and  _571
REMARK  223  A    between atoms: _571  and  _572
REMARK  224  A    between atoms: _571  and  _574
REMARK  225  A    between atoms: _574  and  _575
REMARK  226  A    between atoms: _578  and  _580
REMARK  227  A    between atoms: _580  and  _581
REMARK  228  A    between atoms: _584  and  _586
REMARK  229  A    between atoms: _586  and  _587
REMARK  230  A    between atoms: _590  and  _592
REMARK  231  A    between atoms: _592  and  _593
REMARK  232  A    between atoms: _592  and  _595
REMARK  233  A    between atoms: _595  and  _596
REMARK  234  A    between atoms: _596  and  _597
REMARK                            x       y       z     vdW  Elec       q    Type
REMARK                         _______ _______ _______ _____ _____    ______ ____
ROOT
ATOM      1  O   HOH     1      14.237  -4.761  44.671  0.00  0.00    +0.000 OA
ENDROOT
TORSDOF 0
REMARK  Name = ../refined-set-2016/2xb8/2xb8_pocket.pdb
REMARK  234 active torsions:
REMARK  status: ('A' for Active; 'I' for Inactive)
REMARK    1  A    between atoms: _1  and  _3
REMARK    2  A    between atoms: _3  and  _4
REMARK    3  A    between atoms: _3  and  _6
REMARK    4  A    between atoms: _6  and  _7
REMARK    5  A    between atoms: _12  and  _14
REMARK    6  A    between atoms: _14  and  _15
REMARK    7  A    between atoms: _18  and  _19
REMARK    8  A    between atoms: _24  and  _26
REMARK    9  A    between atoms: _26  and  _27
REMARK   10  A    between atoms: _26  and  _29
REMARK   11  A    between atoms: _29  and  _30
REMARK   12  A    between atoms: _35  and  _37
REMARK   13  A    between atoms: _37  and  _38
REMARK   14  A    between atoms: _37  and  _40
REMARK   15  A    between atoms: _40  and  _41
REMARK   16  A    between atoms: _44  and  _46
REMARK   17  A    between atoms: _46  and  _47
REMARK   18  A    between atoms: _49  and  _51
REMARK   19  A    between atoms: _51  and  _52
REMARK   20  A    between atoms: _51  and  _54
REMARK   21  A    between atoms: _54  and  _55
REMARK   22  A    between atoms: _55  and  _56
REMARK   23  A    between atoms: _56  and  _57
REMARK   24  A    between atoms: _66  and  _68
REMARK   25  A    between atoms: _68  and  _69
REMARK   26  A    between atoms: _68  and  _71
REMARK   27  A    between atoms: _71  and  _72
REMARK   28  A    between atoms: _75  and  _77
REMARK   29  A    between atoms: _77  and  _78
REMARK   30  A    between atoms: _80  and  _82
REMARK   31  A    between atoms: _82  and  _83
REMARK   32  A    between atoms: _82  and  _85
REMARK   33  A    between atoms: _85  and  _86
REMARK   34  A    between atoms: _86  and  _87
REMARK   35  A    between atoms: _87  and  _88
REMARK   36  A    between atoms: _97  and  _99
REMARK   37  A    between atoms: _99  and  _100
REMARK   38  A    between atoms: _99  and  _102
REMARK   39  A    between atoms: _102  and  _103
REMARK   40  A    between atoms: _103  and  _104
REMARK   41  A    between atoms: _104  and  _105
REMARK   42  A    between atoms: _114  and  _116
REMARK   43  A    between atoms: _116  and  _117
REMARK   44  A    between atoms: _116  and  _119
REMARK   45  A    between atoms: _119  and  _120
REMARK   46  A    between atoms: _120  and  _121
REMARK   47  A    between atoms: _125  and  _126
REMARK   48  A    between atoms: _131  and  _133
REMARK   49  A    between atoms: _133  and  _134
REMARK   50  A    between atoms: _133  and  _136
REMARK   51  A    between atoms: _139  and  _141
REMARK   52  A    between atoms: _141  and  _142
REMARK   53  A    between atoms: _141  and  _144
REMARK   54  A    between atoms: _144  and  _145
REMARK   55  A    between atoms: _150  and  _151
REMARK   56  A    between atoms: _153  and  _155
REMARK   57  A    between atoms: _155  and  _156
REMARK   58  A    between atoms: _158  and  _160
REMARK   59  A    between atoms: _160  and  _161
REMARK   60  A    between atoms: _160  and  _163
REMARK   61  A    between atoms: _163  and  _164
REMARK   62  A    between atoms: _167  and  _169
REMARK   63  A    between atoms: _169  and  _170
REMARK   64  A    between atoms: _169  and  _172
REMARK   65  A    between atoms: _172  and  _173
REMARK   66  A    between atoms: _176  and  _178
REMARK   67  A    between atoms: _178  and  _179
REMARK   68  A    between atoms: _178  and  _181
REMARK   69  A    between atoms: _181  and  _182
REMARK   70  A    between atoms: _187  and  _189
REMARK   71  A    between atoms: _189  and  _190
REMARK   72  A    between atoms: _189  and  _192
REMARK   73  A    between atoms: _192  and  _193
REMARK   74  A    between atoms: _196  and  _198
REMARK   75  A    between atoms: _198  and  _199
REMARK   76  A    between atoms: _198  and  _201
REMARK   77  A    between atoms: _201  and  _202
REMARK   78  A    between atoms: _202  and  _203
REMARK   79  A    between atoms: _208  and  _210
REMARK   80  A    between atoms: _210  and  _211
REMARK   81  A    between atoms: _210  and  _213
REMARK   82  A    between atoms: _213  and  _214
REMARK   83  A    between atoms: _217  and  _219
REMARK   84  A    between atoms: _219  and  _220
REMARK   85  A    between atoms: _219  and  _222
REMARK   86  A    between atoms: _222  and  _223
REMARK   87  A    between atoms: _228  and  _230
REMARK   88  A    between atoms: _230  and  _231
REMARK   89  A    between atoms: _234  and  _236
REMARK   90  A    between atoms: _236  and  _237
REMARK   91  A    between atoms: _239  and  _241
REMARK   92  A    between atoms: _241  and  _242
REMARK   93  A    between atoms: _244  and  _246
REMARK   94  A    between atoms: _246  and  _247
REMARK   95  A    between atoms: _246  and  _249
REMARK   96  A    between atoms: _249  and  _250
REMARK   97  A    between atoms: _253  and  _255
REMARK   98  A    between atoms: _255  and  _256
REMARK   99  A    between atoms: _255  and  _258
REMARK  100  A    between atoms: _258  and  _259
REMARK  101  A    between atoms: _262  and  _264
REMARK  102  A    between atoms: _264  and  _265
REMARK  103  A    between atoms: _264  and  _267
REMARK  104  A    between atoms: _267  and  _268
REMARK  105  A    between atoms: _273  and  _275
REMARK  106  A    between atoms: _275  and  _276
REMARK  107  A    between atoms: _275  and  _278
REMARK  108  A    between atoms: _278  and  _279
REMARK  109  A    between atoms: _282  and  _284
REMARK  110  A    between atoms: _284  and  _285
REMARK  111  A    between atoms: _284  and  _287
REMARK  112  A    between atoms: _287  and  _288
REMARK  113  A    between atoms: _288  and  _289
REMARK  114  A    between atoms: _292  and  _294
REMARK  115  A    between atoms: _294  and  _295
REMARK  116  A    between atoms: _294  and  _297
REMARK  117  A    between atoms: _300  and  _302
REMARK  118  A    between atoms: _302  and  _303
REMARK  119  A    between atoms: _302  and  _305
REMARK  120  A    between atoms: _305  and  _306
REMARK  121  A    between atoms: _311  and  _313
REMARK  122  A    between atoms: _313  and  _314
REMARK  123  A    between atoms: _313  and  _316
REMARK  124  A    between atoms: _316  and  _317
REMARK  125  A    between atoms: _320  and  _322
REMARK  126  A    between atoms: _322  and  _323
REMARK  127  A    between atoms: _322  and  _325
REMARK  128  A    between atoms: _325  and  _326
REMARK  129  A    between atoms: _328  and  _330
REMARK  130  A    between atoms: _330  and  _331
REMARK  131  A    between atoms: _330  and  _333
REMARK  132  A    between atoms: _333  and  _334
REMARK  133  A    between atoms: _339  and  _341
REMARK  134  A    between atoms: _341  and  _342
REMARK  135  A    between atoms: _341  and  _344
REMARK  136  A    between atoms: _347  and  _349
REMARK  137  A    between atoms: _349  and  _350
REMARK  138  A    between atoms: _349  and  _352
REMARK  139  A    between atoms: _352  and  _353
REMARK  140  A    between atoms: _358  and  _360
REMARK  141  A    between atoms: _360  and  _361
REMARK  142  A    between atoms: _360  and  _363
REMARK  143  A    between atoms: _363  and  _364
REMARK  144  A    between atoms: _364  and  _365
REMARK  145  A    between atoms: _365  and  _366
REMARK  146  A    between atoms: _375  and  _377
REMARK  147  A    between atoms: _377  and  _378
REMARK  148  A    between atoms: _377  and  _380
REMARK  149  A    between atoms: _380  and  _381
REMARK  150  A    between atoms: _381  and  _382
REMARK  151  A    between atoms: _385  and  _387
REMARK  152  A    between atoms: _387  and  _388
REMARK  153  A    between atoms: _387  and  _390
REMARK  154  A    between atoms: _390  and  _391
REMARK  155  A    between atoms: _397  and  _399
REMARK  156  A    between atoms: _399  and  _400
REMARK  157  A    between atoms: _399  and  _402
REMARK  158  A    between atoms: _402  and  _403
REMARK  159  A    between atoms: _403  and  _404
REMARK  160  A    between atoms: _404  and  _405
REMARK  161  A    between atoms: _414  and  _416
REMARK  162  A    between atoms: _416  and  _417
REMARK  163  A    between atoms: _416  and  _419
REMARK  164  A    between atoms: _419  and  _420
REMARK  165  A    between atoms: _420  and  _421
REMARK  166  A    between atoms: _421  and  _422
REMARK  167  A    between atoms: _431  and  _433
REMARK  168  A    between atoms: _433  and  _434
REMARK  169  A    between atoms: _433  and  _436
REMARK  170  A    between atoms: _436  and  _437
REMARK  171  A    between atoms: _442  and  _444
REMARK  172  A    between atoms: _444  and  _445
REMARK  173  A    between atoms: _444  and  _447
REMARK  174  A    between atoms: _447  and  _448
REMARK  175  A    between atoms: _450  and  _452
REMARK  176  A    between atoms: _452  and  _453
REMARK  177  A    between atoms: _452  and  _455
REMARK  178  A    between atoms: _455  and  _456
REMARK  179  A    between atoms: _459  and  _461
REMARK  180  A    between atoms: _461  and  _462
REMARK  181  A    between atoms: _461  and  _464
REMARK  182  A    between atoms: _464  and  _465
REMARK  183  A    between atoms: _468  and  _470
REMARK  184  A    between atoms: _470  and  _471
REMARK  185  A    between atoms: _470  and  _473
REMARK  186  A    between atoms: _476  and  _478
REMARK  187  A    between atoms: _478  and  _479
REMARK  188  A    between atoms: _481  and  _483
REMARK  189  A    between atoms: _483  and  _484
REMARK  190  A    between atoms: _483  and  _486
REMARK  191  A    between atoms: _486  and  _487
REMARK  192  A    between atoms: _490  and  _492
REMARK  193  A    between atoms: _492  and  _493
REMARK  194  A    between atoms: _495  and  _497
REMARK  195  A    between atoms: _497  and  _498
REMARK  196  A    between atoms: _497  and  _500
REMARK  197  A    between atoms: _500  and  _501
REMARK  198  A    between atoms: _504  and  _506
REMARK  199  A    between atoms: _506  and  _507
REMARK  200  A    between atoms: _506  and  _509
REMARK  201  A    between atoms: _509  and  _510
REMARK  202  A    between atoms: _515  and  _516
REMARK  203  A    between atoms: _518  and  _520
REMARK  204  A    between atoms: _520  and  _521
REMARK  205  A    between atoms: _520  and  _523
REMARK  206  A    between atoms: _523  and  _524
REMARK  207  A    between atoms: _529  and  _531
REMARK  208  A    between atoms: _531  and  _532
REMARK  209  A    between atoms: _531  and  _534
REMARK  210  A    between atoms: _537  and  _539
REMARK  211  A    between atoms: _539  and  _540
REMARK  212  A    between atoms: _543  and  _545
REMARK  213  A    between atoms: _545  and  _546
REMARK  214  A    between atoms: _545  and  _548
REMARK  215  A    between atoms: _548  and  _549
REMARK  216  A    between atoms: _552  and  _554
REMARK  217  A    between atoms: _554  and  _555
REMARK  218  A    between atoms: _554  and  _557
REMARK  219  A    between atoms: _557  and  _558
REMARK  220  A    between atoms: _558  and  _559
REMARK  221  A    between atoms: _559  and  _560
REMARK  222  A    between atoms: _569  and  _571
REMARK  223  A    between atoms: _571  and  _572
REMARK  224  A    between atoms: _571  and  _574
REMARK  225  A    between atoms: _574  and  _575
REMARK  226  A    between atoms: _578  and  _580
REMARK  227  A    between atoms: _580  and  _581
REMARK  228  A    between atoms: _584  and  _586
REMARK  229  A    between atoms: _586  and  _587
REMARK  230  A    between atoms: _590  and  _592
REMARK  231  A    between atoms: _592  and  _593
REMARK  232  A    between atoms: _592  and  _595
REMARK  233  A    between atoms: _595  and  _596
REMARK  234  A    between atoms: _596  and  _597
REMARK                            x       y       z     vdW  Elec       q    Type
REMARK                         _______ _______ _______ _____ _____    ______ ____
ROOT
ATOM      1  O   HOH     1       4.424   2.631  43.760  0.00  0.00    +0.000 OA
ENDROOT
TORSDOF 0
REMARK  Name = ../refined-set-2016/2xb8/2xb8_pocket.pdb
REMARK  234 active torsions:
REMARK  status: ('A' for Active; 'I' for Inactive)
REMARK    1  A    between atoms: _1  and  _3
REMARK    2  A    between atoms: _3  and  _4
REMARK    3  A    between atoms: _3  and  _6
REMARK    4  A    between atoms: _6  and  _7
REMARK    5  A    between atoms: _12  and  _14
REMARK    6  A    between atoms: _14  and  _15
REMARK    7  A    between atoms: _18  and  _19
REMARK    8  A    between atoms: _24  and  _26
REMARK    9  A    between atoms: _26  and  _27
REMARK   10  A    between atoms: _26  and  _29
REMARK   11  A    between atoms: _29  and  _30
REMARK   12  A    between atoms: _35  and  _37
REMARK   13  A    between atoms: _37  and  _38
REMARK   14  A    between atoms: _37  and  _40
REMARK   15  A    between atoms: _40  and  _41
REMARK   16  A    between atoms: _44  and  _46
REMARK   17  A    between atoms: _46  and  _47
REMARK   18  A    between atoms: _49  and  _51
REMARK   19  A    between atoms: _51  and  _52
REMARK   20  A    between atoms: _51  and  _54
REMARK   21  A    between atoms: _54  and  _55
REMARK   22  A    between atoms: _55  and  _56
REMARK   23  A    between atoms: _56  and  _57
REMARK   24  A    between atoms: _66  and  _68
REMARK   25  A    between atoms: _68  and  _69
REMARK   26  A    between atoms: _68  and  _71
REMARK   27  A    between atoms: _71  and  _72
REMARK   28  A    between atoms: _75  and  _77
REMARK   29  A    between atoms: _77  and  _78
REMARK   30  A    between atoms: _80  and  _82
REMARK   31  A    between atoms: _82  and  _83
REMARK   32  A    between atoms: _82  and  _85
REMARK   33  A    between atoms: _85  and  _86
REMARK   34  A    between atoms: _86  and  _87
REMARK   35  A    between atoms: _87  and  _88
REMARK   36  A    between atoms: _97  and  _99
REMARK   37  A    between atoms: _99  and  _100
REMARK   38  A    between atoms: _99  and  _102
REMARK   39  A    between atoms: _102  and  _103
REMARK   40  A    between atoms: _103  and  _104
REMARK   41  A    between atoms: _104  and  _105
REMARK   42  A    between atoms: _114  and  _116
REMARK   43  A    between atoms: _116  and  _117
REMARK   44  A    between atoms: _116  and  _119
REMARK   45  A    between atoms: _119  and  _120
REMARK   46  A    between atoms: _120  and  _121
REMARK   47  A    between atoms: _125  and  _126
REMARK   48  A    between atoms: _131  and  _133
REMARK   49  A    between atoms: _133  and  _134
REMARK   50  A    between atoms: _133  and  _136
REMARK   51  A    between atoms: _139  and  _141
REMARK   52  A    between atoms: _141  and  _142
REMARK   53  A    between atoms: _141  and  _144
REMARK   54  A    between atoms: _144  and  _145
REMARK   55  A    between atoms: _150  and  _151
REMARK   56  A    between atoms: _153  and  _155
REMARK   57  A    between atoms: _155  and  _156
REMARK   58  A    between atoms: _158  and  _160
REMARK   59  A    between atoms: _160  and  _161
REMARK   60  A    between atoms: _160  and  _163
REMARK   61  A    between atoms: _163  and  _164
REMARK   62  A    between atoms: _167  and  _169
REMARK   63  A    between atoms: _169  and  _170
REMARK   64  A    between atoms: _169  and  _172
REMARK   65  A    between atoms: _172  and  _173
REMARK   66  A    between atoms: _176  and  _178
REMARK   67  A    between atoms: _178  and  _179
REMARK   68  A    between atoms: _178  and  _181
REMARK   69  A    between atoms: _181  and  _182
REMARK   70  A    between atoms: _187  and  _189
REMARK   71  A    between atoms: _189  and  _190
REMARK   72  A    between atoms: _189  and  _192
REMARK   73  A    between atoms: _192  and  _193
REMARK   74  A    between atoms: _196  and  _198
REMARK   75  A    between atoms: _198  and  _199
REMARK   76  A    between atoms: _198  and  _201
REMARK   77  A    between atoms: _201  and  _202
REMARK   78  A    between atoms: _202  and  _203
REMARK   79  A    between atoms: _208  and  _210
REMARK   80  A    between atoms: _210  and  _211
REMARK   81  A    between atoms: _210  and  _213
REMARK   82  A    between atoms: _213  and  _214
REMARK   83  A    between atoms: _217  and  _219
REMARK   84  A    between atoms: _219  and  _220
REMARK   85  A    between atoms: _219  and  _222
REMARK   86  A    between atoms: _222  and  _223
REMARK   87  A    between atoms: _228  and  _230
REMARK   88  A    between atoms: _230  and  _231
REMARK   89  A    between atoms: _234  and  _236
REMARK   90  A    between atoms: _236  and  _237
REMARK   91  A    between atoms: _239  and  _241
REMARK   92  A    between atoms: _241  and  _242
REMARK   93  A    between atoms: _244  and  _246
REMARK   94  A    between atoms: _246  and  _247
REMARK   95  A    between atoms: _246  and  _249
REMARK   96  A    between atoms: _249  and  _250
REMARK   97  A    between atoms: _253  and  _255
REMARK   98  A    between atoms: _255  and  _256
REMARK   99  A    between atoms: _255  and  _258
REMARK  100  A    between atoms: _258  and  _259
REMARK  101  A    between atoms: _262  and  _264
REMARK  102  A    between atoms: _264  and  _265
REMARK  103  A    between atoms: _264  and  _267
REMARK  104  A    between atoms: _267  and  _268
REMARK  105  A    between atoms: _273  and  _275
REMARK  106  A    between atoms: _275  and  _276
REMARK  107  A    between atoms: _275  and  _278
REMARK  108  A    between atoms: _278  and  _279
REMARK  109  A    between atoms: _282  and  _284
REMARK  110  A    between atoms: _284  and  _285
REMARK  111  A    between atoms: _284  and  _287
REMARK  112  A    between atoms: _287  and  _288
REMARK  113  A    between atoms: _288  and  _289
REMARK  114  A    between atoms: _292  and  _294
REMARK  115  A    between atoms: _294  and  _295
REMARK  116  A    between atoms: _294  and  _297
REMARK  117  A    between atoms: _300  and  _302
REMARK  118  A    between atoms: _302  and  _303
REMARK  119  A    between atoms: _302  and  _305
REMARK  120  A    between atoms: _305  and  _306
REMARK  121  A    between atoms: _311  and  _313
REMARK  122  A    between atoms: _313  and  _314
REMARK  123  A    between atoms: _313  and  _316
REMARK  124  A    between atoms: _316  and  _317
REMARK  125  A    between atoms: _320  and  _322
REMARK  126  A    between atoms: _322  and  _323
REMARK  127  A    between atoms: _322  and  _325
REMARK  128  A    between atoms: _325  and  _326
REMARK  129  A    between atoms: _328  and  _330
REMARK  130  A    between atoms: _330  and  _331
REMARK  131  A    between atoms: _330  and  _333
REMARK  132  A    between atoms: _333  and  _334
REMARK  133  A    between atoms: _339  and  _341
REMARK  134  A    between atoms: _341  and  _342
REMARK  135  A    between atoms: _341  and  _344
REMARK  136  A    between atoms: _347  and  _349
REMARK  137  A    between atoms: _349  and  _350
REMARK  138  A    between atoms: _349  and  _352
REMARK  139  A    between atoms: _352  and  _353
REMARK  140  A    between atoms: _358  and  _360
REMARK  141  A    between atoms: _360  and  _361
REMARK  142  A    between atoms: _360  and  _363
REMARK  143  A    between atoms: _363  and  _364
REMARK  144  A    between atoms: _364  and  _365
REMARK  145  A    between atoms: _365  and  _366
REMARK  146  A    between atoms: _375  and  _377
REMARK  147  A    between atoms: _377  and  _378
REMARK  148  A    between atoms: _377  and  _380
REMARK  149  A    between atoms: _380  and  _381
REMARK  150  A    between atoms: _381  and  _382
REMARK  151  A    between atoms: _385  and  _387
REMARK  152  A    between atoms: _387  and  _388
REMARK  153  A    between atoms: _387  and  _390
REMARK  154  A    between atoms: _390  and  _391
REMARK  155  A    between atoms: _397  and  _399
REMARK  156  A    between atoms: _399  and  _400
REMARK  157  A    between atoms: _399  and  _402
REMARK  158  A    between atoms: _402  and  _403
REMARK  159  A    between atoms: _403  and  _404
REMARK  160  A    between atoms: _404  and  _405
REMARK  161  A    between atoms: _414  and  _416
REMARK  162  A    between atoms: _416  and  _417
REMARK  163  A    between atoms: _416  and  _419
REMARK  164  A    between atoms: _419  and  _420
REMARK  165  A    between atoms: _420  and  _421
REMARK  166  A    between atoms: _421  and  _422
REMARK  167  A    between atoms: _431  and  _433
REMARK  168  A    between atoms: _433  and  _434
REMARK  169  A    between atoms: _433  and  _436
REMARK  170  A    between atoms: _436  and  _437
REMARK  171  A    between atoms: _442  and  _444
REMARK  172  A    between atoms: _444  and  _445
REMARK  173  A    between atoms: _444  and  _447
REMARK  174  A    between atoms: _447  and  _448
REMARK  175  A    between atoms: _450  and  _452
REMARK  176  A    between atoms: _452  and  _453
REMARK  177  A    between atoms: _452  and  _455
REMARK  178  A    between atoms: _455  and  _456
REMARK  179  A    between atoms: _459  and  _461
REMARK  180  A    between atoms: _461  and  _462
REMARK  181  A    between atoms: _461  and  _464
REMARK  182  A    between atoms: _464  and  _465
REMARK  183  A    between atoms: _468  and  _470
REMARK  184  A    between atoms: _470  and  _471
REMARK  185  A    between atoms: _470  and  _473
REMARK  186  A    between atoms: _476  and  _478
REMARK  187  A    between atoms: _478  and  _479
REMARK  188  A    between atoms: _481  and  _483
REMARK  189  A    between atoms: _483  and  _484
REMARK  190  A    between atoms: _483  and  _486
REMARK  191  A    between atoms: _486  and  _487
REMARK  192  A    between atoms: _490  and  _492
REMARK  193  A    between atoms: _492  and  _493
REMARK  194  A    between atoms: _495  and  _497
REMARK  195  A    between atoms: _497  and  _498
REMARK  196  A    between atoms: _497  and  _500
REMARK  197  A    between atoms: _500  and  _501
REMARK  198  A    between atoms: _504  and  _506
REMARK  199  A    between atoms: _506  and  _507
REMARK  200  A    between atoms: _506  and  _509
REMARK  201  A    between atoms: _509  and  _510
REMARK  202  A    between atoms: _515  and  _516
REMARK  203  A    between atoms: _518  and  _520
REMARK  204  A    between atoms: _520  and  _521
REMARK  205  A    between atoms: _520  and  _523
REMARK  206  A    between atoms: _523  and  _524
REMARK  207  A    between atoms: _529  and  _531
REMARK  208  A    between atoms: _531  and  _532
REMARK  209  A    between atoms: _531  and  _534
REMARK  210  A    between atoms: _537  and  _539
REMARK  211  A    between atoms: _539  and  _540
REMARK  212  A    between atoms: _543  and  _545
REMARK  213  A    between atoms: _545  and  _546
REMARK  214  A    between atoms: _545  and  _548
REMARK  215  A    between atoms: _548  and  _549
REMARK  216  A    between atoms: _552  and  _554
REMARK  217  A    between atoms: _554  and  _555
REMARK  218  A    between atoms: _554  and  _557
REMARK  219  A    between atoms: _557  and  _558
REMARK  220  A    between atoms: _558  and  _559
REMARK  221  A    between atoms: _559  and  _560
REMARK  222  A    between atoms: _569  and  _571
REMARK  223  A    between atoms: _571  and  _572
REMARK  224  A    between atoms: _571  and  _574
REMARK  225  A    between atoms: _574  and  _575
REMARK  226  A    between atoms: _578  and  _580
REMARK  227  A    between atoms: _580  and  _581
REMARK  228  A    between atoms: _584  and  _586
REMARK  229  A    between atoms: _586  and  _587
REMARK  230  A    between atoms: _590  and  _592
REMARK  231  A    between atoms: _592  and  _593
REMARK  232  A    between atoms: _592  and  _595
REMARK  233  A    between atoms: _595  and  _596
REMARK  234  A    between atoms: _596  and  _597
REMARK                            x       y       z     vdW  Elec       q    Type
REMARK                         _______ _______ _______ _____ _____    ______ ____
ROOT
ATOM      1  O   HOH     1       6.652  -0.714  31.918  0.00  0.00    +0.000 OA
ENDROOT
TORSDOF 0
REMARK  Name = ../refined-set-2016/2xb8/2xb8_pocket.pdb
REMARK  234 active torsions:
REMARK  status: ('A' for Active; 'I' for Inactive)
REMARK    1  A    between atoms: _1  and  _3
REMARK    2  A    between atoms: _3  and  _4
REMARK    3  A    between atoms: _3  and  _6
REMARK    4  A    between atoms: _6  and  _7
REMARK    5  A    between atoms: _12  and  _14
REMARK    6  A    between atoms: _14  and  _15
REMARK    7  A    between atoms: _18  and  _19
REMARK    8  A    between atoms: _24  and  _26
REMARK    9  A    between atoms: _26  and  _27
REMARK   10  A    between atoms: _26  and  _29
REMARK   11  A    between atoms: _29  and  _30
REMARK   12  A    between atoms: _35  and  _37
REMARK   13  A    between atoms: _37  and  _38
REMARK   14  A    between atoms: _37  and  _40
REMARK   15  A    between atoms: _40  and  _41
REMARK   16  A    between atoms: _44  and  _46
REMARK   17  A    between atoms: _46  and  _47
REMARK   18  A    between atoms: _49  and  _51
REMARK   19  A    between atoms: _51  and  _52
REMARK   20  A    between atoms: _51  and  _54
REMARK   21  A    between atoms: _54  and  _55
REMARK   22  A    between atoms: _55  and  _56
REMARK   23  A    between atoms: _56  and  _57
REMARK   24  A    between atoms: _66  and  _68
REMARK   25  A    between atoms: _68  and  _69
REMARK   26  A    between atoms: _68  and  _71
REMARK   27  A    between atoms: _71  and  _72
REMARK   28  A    between atoms: _75  and  _77
REMARK   29  A    between atoms: _77  and  _78
REMARK   30  A    between atoms: _80  and  _82
REMARK   31  A    between atoms: _82  and  _83
REMARK   32  A    between atoms: _82  and  _85
REMARK   33  A    between atoms: _85  and  _86
REMARK   34  A    between atoms: _86  and  _87
REMARK   35  A    between atoms: _87  and  _88
REMARK   36  A    between atoms: _97  and  _99
REMARK   37  A    between atoms: _99  and  _100
REMARK   38  A    between atoms: _99  and  _102
REMARK   39  A    between atoms: _102  and  _103
REMARK   40  A    between atoms: _103  and  _104
REMARK   41  A    between atoms: _104  and  _105
REMARK   42  A    between atoms: _114  and  _116
REMARK   43  A    between atoms: _116  and  _117
REMARK   44  A    between atoms: _116  and  _119
REMARK   45  A    between atoms: _119  and  _120
REMARK   46  A    between atoms: _120  and  _121
REMARK   47  A    between atoms: _125  and  _126
REMARK   48  A    between atoms: _131  and  _133
REMARK   49  A    between atoms: _133  and  _134
REMARK   50  A    between atoms: _133  and  _136
REMARK   51  A    between atoms: _139  and  _141
REMARK   52  A    between atoms: _141  and  _142
REMARK   53  A    between atoms: _141  and  _144
REMARK   54  A    between atoms: _144  and  _145
REMARK   55  A    between atoms: _150  and  _151
REMARK   56  A    between atoms: _153  and  _155
REMARK   57  A    between atoms: _155  and  _156
REMARK   58  A    between atoms: _158  and  _160
REMARK   59  A    between atoms: _160  and  _161
REMARK   60  A    between atoms: _160  and  _163
REMARK   61  A    between atoms: _163  and  _164
REMARK   62  A    between atoms: _167  and  _169
REMARK   63  A    between atoms: _169  and  _170
REMARK   64  A    between atoms: _169  and  _172
REMARK   65  A    between atoms: _172  and  _173
REMARK   66  A    between atoms: _176  and  _178
REMARK   67  A    between atoms: _178  and  _179
REMARK   68  A    between atoms: _178  and  _181
REMARK   69  A    between atoms: _181  and  _182
REMARK   70  A    between atoms: _187  and  _189
REMARK   71  A    between atoms: _189  and  _190
REMARK   72  A    between atoms: _189  and  _192
REMARK   73  A    between atoms: _192  and  _193
REMARK   74  A    between atoms: _196  and  _198
REMARK   75  A    between atoms: _198  and  _199
REMARK   76  A    between atoms: _198  and  _201
REMARK   77  A    between atoms: _201  and  _202
REMARK   78  A    between atoms: _202  and  _203
REMARK   79  A    between atoms: _208  and  _210
REMARK   80  A    between atoms: _210  and  _211
REMARK   81  A    between atoms: _210  and  _213
REMARK   82  A    between atoms: _213  and  _214
REMARK   83  A    between atoms: _217  and  _219
REMARK   84  A    between atoms: _219  and  _220
REMARK   85  A    between atoms: _219  and  _222
REMARK   86  A    between atoms: _222  and  _223
REMARK   87  A    between atoms: _228  and  _230
REMARK   88  A    between atoms: _230  and  _231
REMARK   89  A    between atoms: _234  and  _236
REMARK   90  A    between atoms: _236  and  _237
REMARK   91  A    between atoms: _239  and  _241
REMARK   92  A    between atoms: _241  and  _242
REMARK   93  A    between atoms: _244  and  _246
REMARK   94  A    between atoms: _246  and  _247
REMARK   95  A    between atoms: _246  and  _249
REMARK   96  A    between atoms: _249  and  _250
REMARK   97  A    between atoms: _253  and  _255
REMARK   98  A    between atoms: _255  and  _256
REMARK   99  A    between atoms: _255  and  _258
REMARK  100  A    between atoms: _258  and  _259
REMARK  101  A    between atoms: _262  and  _264
REMARK  102  A    between atoms: _264  and  _265
REMARK  103  A    between atoms: _264  and  _267
REMARK  104  A    between atoms: _267  and  _268
REMARK  105  A    between atoms: _273  and  _275
REMARK  106  A    between atoms: _275  and  _276
REMARK  107  A    between atoms: _275  and  _278
REMARK  108  A    between atoms: _278  and  _279
REMARK  109  A    between atoms: _282  and  _284
REMARK  110  A    between atoms: _284  and  _285
REMARK  111  A    between atoms: _284  and  _287
REMARK  112  A    between atoms: _287  and  _288
REMARK  113  A    between atoms: _288  and  _289
REMARK  114  A    between atoms: _292  and  _294
REMARK  115  A    between atoms: _294  and  _295
REMARK  116  A    between atoms: _294  and  _297
REMARK  117  A    between atoms: _300  and  _302
REMARK  118  A    between atoms: _302  and  _303
REMARK  119  A    between atoms: _302  and  _305
REMARK  120  A    between atoms: _305  and  _306
REMARK  121  A    between atoms: _311  and  _313
REMARK  122  A    between atoms: _313  and  _314
REMARK  123  A    between atoms: _313  and  _316
REMARK  124  A    between atoms: _316  and  _317
REMARK  125  A    between atoms: _320  and  _322
REMARK  126  A    between atoms: _322  and  _323
REMARK  127  A    between atoms: _322  and  _325
REMARK  128  A    between atoms: _325  and  _326
REMARK  129  A    between atoms: _328  and  _330
REMARK  130  A    between atoms: _330  and  _331
REMARK  131  A    between atoms: _330  and  _333
REMARK  132  A    between atoms: _333  and  _334
REMARK  133  A    between atoms: _339  and  _341
REMARK  134  A    between atoms: _341  and  _342
REMARK  135  A    between atoms: _341  and  _344
REMARK  136  A    between atoms: _347  and  _349
REMARK  137  A    between atoms: _349  and  _350
REMARK  138  A    between atoms: _349  and  _352
REMARK  139  A    between atoms: _352  and  _353
REMARK  140  A    between atoms: _358  and  _360
REMARK  141  A    between atoms: _360  and  _361
REMARK  142  A    between atoms: _360  and  _363
REMARK  143  A    between atoms: _363  and  _364
REMARK  144  A    between atoms: _364  and  _365
REMARK  145  A    between atoms: _365  and  _366
REMARK  146  A    between atoms: _375  and  _377
REMARK  147  A    between atoms: _377  and  _378
REMARK  148  A    between atoms: _377  and  _380
REMARK  149  A    between atoms: _380  and  _381
REMARK  150  A    between atoms: _381  and  _382
REMARK  151  A    between atoms: _385  and  _387
REMARK  152  A    between atoms: _387  and  _388
REMARK  153  A    between atoms: _387  and  _390
REMARK  154  A    between atoms: _390  and  _391
REMARK  155  A    between atoms: _397  and  _399
REMARK  156  A    between atoms: _399  and  _400
REMARK  157  A    between atoms: _399  and  _402
REMARK  158  A    between atoms: _402  and  _403
REMARK  159  A    between atoms: _403  and  _404
REMARK  160  A    between atoms: _404  and  _405
REMARK  161  A    between atoms: _414  and  _416
REMARK  162  A    between atoms: _416  and  _417
REMARK  163  A    between atoms: _416  and  _419
REMARK  164  A    between atoms: _419  and  _420
REMARK  165  A    between atoms: _420  and  _421
REMARK  166  A    between atoms: _421  and  _422
REMARK  167  A    between atoms: _431  and  _433
REMARK  168  A    between atoms: _433  and  _434
REMARK  169  A    between atoms: _433  and  _436
REMARK  170  A    between atoms: _436  and  _437
REMARK  171  A    between atoms: _442  and  _444
REMARK  172  A    between atoms: _444  and  _445
REMARK  173  A    between atoms: _444  and  _447
REMARK  174  A    between atoms: _447  and  _448
REMARK  175  A    between atoms: _450  and  _452
REMARK  176  A    between atoms: _452  and  _453
REMARK  177  A    between atoms: _452  and  _455
REMARK  178  A    between atoms: _455  and  _456
REMARK  179  A    between atoms: _459  and  _461
REMARK  180  A    between atoms: _461  and  _462
REMARK  181  A    between atoms: _461  and  _464
REMARK  182  A    between atoms: _464  and  _465
REMARK  183  A    between atoms: _468  and  _470
REMARK  184  A    between atoms: _470  and  _471
REMARK  185  A    between atoms: _470  and  _473
REMARK  186  A    between atoms: _476  and  _478
REMARK  187  A    between atoms: _478  and  _479
REMARK  188  A    between atoms: _481  and  _483
REMARK  189  A    between atoms: _483  and  _484
REMARK  190  A    between atoms: _483  and  _486
REMARK  191  A    between atoms: _486  and  _487
REMARK  192  A    between atoms: _490  and  _492
REMARK  193  A    between atoms: _492  and  _493
REMARK  194  A    between atoms: _495  and  _497
REMARK  195  A    between atoms: _497  and  _498
REMARK  196  A    between atoms: _497  and  _500
REMARK  197  A    between atoms: _500  and  _501
REMARK  198  A    between atoms: _504  and  _506
REMARK  199  A    between atoms: _506  and  _507
REMARK  200  A    between atoms: _506  and  _509
REMARK  201  A    between atoms: _509  and  _510
REMARK  202  A    between atoms: _515  and  _516
REMARK  203  A    between atoms: _518  and  _520
REMARK  204  A    between atoms: _520  and  _521
REMARK  205  A    between atoms: _520  and  _523
REMARK  206  A    between atoms: _523  and  _524
REMARK  207  A    between atoms: _529  and  _531
REMARK  208  A    between atoms: _531  and  _532
REMARK  209  A    between atoms: _531  and  _534
REMARK  210  A    between atoms: _537  and  _539
REMARK  211  A    between atoms: _539  and  _540
REMARK  212  A    between atoms: _543  and  _545
REMARK  213  A    between atoms: _545  and  _546
REMARK  214  A    between atoms: _545  and  _548
REMARK  215  A    between atoms: _548  and  _549
REMARK  216  A    between atoms: _552  and  _554
REMARK  217  A    between atoms: _554  and  _555
REMARK  218  A    between atoms: _554  and  _557
REMARK  219  A    between atoms: _557  and  _558
REMARK  220  A    between atoms: _558  and  _559
REMARK  221  A    between atoms: _559  and  _560
REMARK  222  A    between atoms: _569  and  _571
REMARK  223  A    between atoms: _571  and  _572
REMARK  224  A    between atoms: _571  and  _574
REMARK  225  A    between atoms: _574  and  _575
REMARK  226  A    between atoms: _578  and  _580
REMARK  227  A    between atoms: _580  and  _581
REMARK  228  A    between atoms: _584  and  _586
REMARK  229  A    between atoms: _586  and  _587
REMARK  230  A    between atoms: _590  and  _592
REMARK  231  A    between atoms: _592  and  _593
REMARK  232  A    between atoms: _592  and  _595
REMARK  233  A    between atoms: _595  and  _596
REMARK  234  A    between atoms: _596  and  _597
REMARK                            x       y       z     vdW  Elec       q    Type
REMARK                         _______ _______ _______ _____ _____    ______ ____
ROOT
ATOM      1  O   HOH     1      14.322   9.285  46.783  0.00  0.00    +0.000 OA
ENDROOT
TORSDOF 0
REMARK  Name = ../refined-set-2016/2xb8/2xb8_pocket.pdb
REMARK  234 active torsions:
REMARK  status: ('A' for Active; 'I' for Inactive)
REMARK    1  A    between atoms: _1  and  _3
REMARK    2  A    between atoms: _3  and  _4
REMARK    3  A    between atoms: _3  and  _6
REMARK    4  A    between atoms: _6  and  _7
REMARK    5  A    between atoms: _12  and  _14
REMARK    6  A    between atoms: _14  and  _15
REMARK    7  A    between atoms: _18  and  _19
REMARK    8  A    between atoms: _24  and  _26
REMARK    9  A    between atoms: _26  and  _27
REMARK   10  A    between atoms: _26  and  _29
REMARK   11  A    between atoms: _29  and  _30
REMARK   12  A    between atoms: _35  and  _37
REMARK   13  A    between atoms: _37  and  _38
REMARK   14  A    between atoms: _37  and  _40
REMARK   15  A    between atoms: _40  and  _41
REMARK   16  A    between atoms: _44  and  _46
REMARK   17  A    between atoms: _46  and  _47
REMARK   18  A    between atoms: _49  and  _51
REMARK   19  A    between atoms: _51  and  _52
REMARK   20  A    between atoms: _51  and  _54
REMARK   21  A    between atoms: _54  and  _55
REMARK   22  A    between atoms: _55  and  _56
REMARK   23  A    between atoms: _56  and  _57
REMARK   24  A    between atoms: _66  and  _68
REMARK   25  A    between atoms: _68  and  _69
REMARK   26  A    between atoms: _68  and  _71
REMARK   27  A    between atoms: _71  and  _72
REMARK   28  A    between atoms: _75  and  _77
REMARK   29  A    between atoms: _77  and  _78
REMARK   30  A    between atoms: _80  and  _82
REMARK   31  A    between atoms: _82  and  _83
REMARK   32  A    between atoms: _82  and  _85
REMARK   33  A    between atoms: _85  and  _86
REMARK   34  A    between atoms: _86  and  _87
REMARK   35  A    between atoms: _87  and  _88
REMARK   36  A    between atoms: _97  and  _99
REMARK   37  A    between atoms: _99  and  _100
REMARK   38  A    between atoms: _99  and  _102
REMARK   39  A    between atoms: _102  and  _103
REMARK   40  A    between atoms: _103  and  _104
REMARK   41  A    between atoms: _104  and  _105
REMARK   42  A    between atoms: _114  and  _116
REMARK   43  A    between atoms: _116  and  _117
REMARK   44  A    between atoms: _116  and  _119
REMARK   45  A    between atoms: _119  and  _120
REMARK   46  A    between atoms: _120  and  _121
REMARK   47  A    between atoms: _125  and  _126
REMARK   48  A    between atoms: _131  and  _133
REMARK   49  A    between atoms: _133  and  _134
REMARK   50  A    between atoms: _133  and  _136
REMARK   51  A    between atoms: _139  and  _141
REMARK   52  A    between atoms: _141  and  _142
REMARK   53  A    between atoms: _141  and  _144
REMARK   54  A    between atoms: _144  and  _145
REMARK   55  A    between atoms: _150  and  _151
REMARK   56  A    between atoms: _153  and  _155
REMARK   57  A    between atoms: _155  and  _156
REMARK   58  A    between atoms: _158  and  _160
REMARK   59  A    between atoms: _160  and  _161
REMARK   60  A    between atoms: _160  and  _163
REMARK   61  A    between atoms: _163  and  _164
REMARK   62  A    between atoms: _167  and  _169
REMARK   63  A    between atoms: _169  and  _170
REMARK   64  A    between atoms: _169  and  _172
REMARK   65  A    between atoms: _172  and  _173
REMARK   66  A    between atoms: _176  and  _178
REMARK   67  A    between atoms: _178  and  _179
REMARK   68  A    between atoms: _178  and  _181
REMARK   69  A    between atoms: _181  and  _182
REMARK   70  A    between atoms: _187  and  _189
REMARK   71  A    between atoms: _189  and  _190
REMARK   72  A    between atoms: _189  and  _192
REMARK   73  A    between atoms: _192  and  _193
REMARK   74  A    between atoms: _196  and  _198
REMARK   75  A    between atoms: _198  and  _199
REMARK   76  A    between atoms: _198  and  _201
REMARK   77  A    between atoms: _201  and  _202
REMARK   78  A    between atoms: _202  and  _203
REMARK   79  A    between atoms: _208  and  _210
REMARK   80  A    between atoms: _210  and  _211
REMARK   81  A    between atoms: _210  and  _213
REMARK   82  A    between atoms: _213  and  _214
REMARK   83  A    between atoms: _217  and  _219
REMARK   84  A    between atoms: _219  and  _220
REMARK   85  A    between atoms: _219  and  _222
REMARK   86  A    between atoms: _222  and  _223
REMARK   87  A    between atoms: _228  and  _230
REMARK   88  A    between atoms: _230  and  _231
REMARK   89  A    between atoms: _234  and  _236
REMARK   90  A    between atoms: _236  and  _237
REMARK   91  A    between atoms: _239  and  _241
REMARK   92  A    between atoms: _241  and  _242
REMARK   93  A    between atoms: _244  and  _246
REMARK   94  A    between atoms: _246  and  _247
REMARK   95  A    between atoms: _246  and  _249
REMARK   96  A    between atoms: _249  and  _250
REMARK   97  A    between atoms: _253  and  _255
REMARK   98  A    between atoms: _255  and  _256
REMARK   99  A    between atoms: _255  and  _258
REMARK  100  A    between atoms: _258  and  _259
REMARK  101  A    between atoms: _262  and  _264
REMARK  102  A    between atoms: _264  and  _265
REMARK  103  A    between atoms: _264  and  _267
REMARK  104  A    between atoms: _267  and  _268
REMARK  105  A    between atoms: _273  and  _275
REMARK  106  A    between atoms: _275  and  _276
REMARK  107  A    between atoms: _275  and  _278
REMARK  108  A    between atoms: _278  and  _279
REMARK  109  A    between atoms: _282  and  _284
REMARK  110  A    between atoms: _284  and  _285
REMARK  111  A    between atoms: _284  and  _287
REMARK  112  A    between atoms: _287  and  _288
REMARK  113  A    between atoms: _288  and  _289
REMARK  114  A    between atoms: _292  and  _294
REMARK  115  A    between atoms: _294  and  _295
REMARK  116  A    between atoms: _294  and  _297
REMARK  117  A    between atoms: _300  and  _302
REMARK  118  A    between atoms: _302  and  _303
REMARK  119  A    between atoms: _302  and  _305
REMARK  120  A    between atoms: _305  and  _306
REMARK  121  A    between atoms: _311  and  _313
REMARK  122  A    between atoms: _313  and  _314
REMARK  123  A    between atoms: _313  and  _316
REMARK  124  A    between atoms: _316  and  _317
REMARK  125  A    between atoms: _320  and  _322
REMARK  126  A    between atoms: _322  and  _323
REMARK  127  A    between atoms: _322  and  _325
REMARK  128  A    between atoms: _325  and  _326
REMARK  129  A    between atoms: _328  and  _330
REMARK  130  A    between atoms: _330  and  _331
REMARK  131  A    between atoms: _330  and  _333
REMARK  132  A    between atoms: _333  and  _334
REMARK  133  A    between atoms: _339  and  _341
REMARK  134  A    between atoms: _341  and  _342
REMARK  135  A    between atoms: _341  and  _344
REMARK  136  A    between atoms: _347  and  _349
REMARK  137  A    between atoms: _349  and  _350
REMARK  138  A    between atoms: _349  and  _352
REMARK  139  A    between atoms: _352  and  _353
REMARK  140  A    between atoms: _358  and  _360
REMARK  141  A    between atoms: _360  and  _361
REMARK  142  A    between atoms: _360  and  _363
REMARK  143  A    between atoms: _363  and  _364
REMARK  144  A    between atoms: _364  and  _365
REMARK  145  A    between atoms: _365  and  _366
REMARK  146  A    between atoms: _375  and  _377
REMARK  147  A    between atoms: _377  and  _378
REMARK  148  A    between atoms: _377  and  _380
REMARK  149  A    between atoms: _380  and  _381
REMARK  150  A    between atoms: _381  and  _382
REMARK  151  A    between atoms: _385  and  _387
REMARK  152  A    between atoms: _387  and  _388
REMARK  153  A    between atoms: _387  and  _390
REMARK  154  A    between atoms: _390  and  _391
REMARK  155  A    between atoms: _397  and  _399
REMARK  156  A    between atoms: _399  and  _400
REMARK  157  A    between atoms: _399  and  _402
REMARK  158  A    between atoms: _402  and  _403
REMARK  159  A    between atoms: _403  and  _404
REMARK  160  A    between atoms: _404  and  _405
REMARK  161  A    between atoms: _414  and  _416
REMARK  162  A    between atoms: _416  and  _417
REMARK  163  A    between atoms: _416  and  _419
REMARK  164  A    between atoms: _419  and  _420
REMARK  165  A    between atoms: _420  and  _421
REMARK  166  A    between atoms: _421  and  _422
REMARK  167  A    between atoms: _431  and  _433
REMARK  168  A    between atoms: _433  and  _434
REMARK  169  A    between atoms: _433  and  _436
REMARK  170  A    between atoms: _436  and  _437
REMARK  171  A    between atoms: _442  and  _444
REMARK  172  A    between atoms: _444  and  _445
REMARK  173  A    between atoms: _444  and  _447
REMARK  174  A    between atoms: _447  and  _448
REMARK  175  A    between atoms: _450  and  _452
REMARK  176  A    between atoms: _452  and  _453
REMARK  177  A    between atoms: _452  and  _455
REMARK  178  A    between atoms: _455  and  _456
REMARK  179  A    between atoms: _459  and  _461
REMARK  180  A    between atoms: _461  and  _462
REMARK  181  A    between atoms: _461  and  _464
REMARK  182  A    between atoms: _464  and  _465
REMARK  183  A    between atoms: _468  and  _470
REMARK  184  A    between atoms: _470  and  _471
REMARK  185  A    between atoms: _470  and  _473
REMARK  186  A    between atoms: _476  and  _478
REMARK  187  A    between atoms: _478  and  _479
REMARK  188  A    between atoms: _481  and  _483
REMARK  189  A    between atoms: _483  and  _484
REMARK  190  A    between atoms: _483  and  _486
REMARK  191  A    between atoms: _486  and  _487
REMARK  192  A    between atoms: _490  and  _492
REMARK  193  A    between atoms: _492  and  _493
REMARK  194  A    between atoms: _495  and  _497
REMARK  195  A    between atoms: _497  and  _498
REMARK  196  A    between atoms: _497  and  _500
REMARK  197  A    between atoms: _500  and  _501
REMARK  198  A    between atoms: _504  and  _506
REMARK  199  A    between atoms: _506  and  _507
REMARK  200  A    between atoms: _506  and  _509
REMARK  201  A    between atoms: _509  and  _510
REMARK  202  A    between atoms: _515  and  _516
REMARK  203  A    between atoms: _518  and  _520
REMARK  204  A    between atoms: _520  and  _521
REMARK  205  A    between atoms: _520  and  _523
REMARK  206  A    between atoms: _523  and  _524
REMARK  207  A    between atoms: _529  and  _531
REMARK  208  A    between atoms: _531  and  _532
REMARK  209  A    between atoms: _531  and  _534
REMARK  210  A    between atoms: _537  and  _539
REMARK  211  A    between atoms: _539  and  _540
REMARK  212  A    between atoms: _543  and  _545
REMARK  213  A    between atoms: _545  and  _546
REMARK  214  A    between atoms: _545  and  _548
REMARK  215  A    between atoms: _548  and  _549
REMARK  216  A    between atoms: _552  and  _554
REMARK  217  A    between atoms: _554  and  _555
REMARK  218  A    between atoms: _554  and  _557
REMARK  219  A    between atoms: _557  and  _558
REMARK  220  A    between atoms: _558  and  _559
REMARK  221  A    between atoms: _559  and  _560
REMARK  222  A    between atoms: _569  and  _571
REMARK  223  A    between atoms: _571  and  _572
REMARK  224  A    between atoms: _571  and  _574
REMARK  225  A    between atoms: _574  and  _575
REMARK  226  A    between atoms: _578  and  _580
REMARK  227  A    between atoms: _580  and  _581
REMARK  228  A    between atoms: _584  and  _586
REMARK  229  A    between atoms: _586  and  _587
REMARK  230  A    between atoms: _590  and  _592
REMARK  231  A    between atoms: _592  and  _593
REMARK  232  A    between atoms: _592  and  _595
REMARK  233  A    between atoms: _595  and  _596
REMARK  234  A    between atoms: _596  and  _597
REMARK                            x       y       z     vdW  Elec       q    Type
REMARK                         _______ _______ _______ _____ _____    ______ ____
ROOT
ATOM      1  O   HOH     1      16.154   6.168  41.346  0.00  0.00    +0.000 OA
ENDROOT
TORSDOF 0
REMARK  Name = ../refined-set-2016/2xb8/2xb8_pocket.pdb
REMARK  234 active torsions:
REMARK  status: ('A' for Active; 'I' for Inactive)
REMARK    1  A    between atoms: _1  and  _3
REMARK    2  A    between atoms: _3  and  _4
REMARK    3  A    between atoms: _3  and  _6
REMARK    4  A    between atoms: _6  and  _7
REMARK    5  A    between atoms: _12  and  _14
REMARK    6  A    between atoms: _14  and  _15
REMARK    7  A    between atoms: _18  and  _19
REMARK    8  A    between atoms: _24  and  _26
REMARK    9  A    between atoms: _26  and  _27
REMARK   10  A    between atoms: _26  and  _29
REMARK   11  A    between atoms: _29  and  _30
REMARK   12  A    between atoms: _35  and  _37
REMARK   13  A    between atoms: _37  and  _38
REMARK   14  A    between atoms: _37  and  _40
REMARK   15  A    between atoms: _40  and  _41
REMARK   16  A    between atoms: _44  and  _46
REMARK   17  A    between atoms: _46  and  _47
REMARK   18  A    between atoms: _49  and  _51
REMARK   19  A    between atoms: _51  and  _52
REMARK   20  A    between atoms: _51  and  _54
REMARK   21  A    between atoms: _54  and  _55
REMARK   22  A    between atoms: _55  and  _56
REMARK   23  A    between atoms: _56  and  _57
REMARK   24  A    between atoms: _66  and  _68
REMARK   25  A    between atoms: _68  and  _69
REMARK   26  A    between atoms: _68  and  _71
REMARK   27  A    between atoms: _71  and  _72
REMARK   28  A    between atoms: _75  and  _77
REMARK   29  A    between atoms: _77  and  _78
REMARK   30  A    between atoms: _80  and  _82
REMARK   31  A    between atoms: _82  and  _83
REMARK   32  A    between atoms: _82  and  _85
REMARK   33  A    between atoms: _85  and  _86
REMARK   34  A    between atoms: _86  and  _87
REMARK   35  A    between atoms: _87  and  _88
REMARK   36  A    between atoms: _97  and  _99
REMARK   37  A    between atoms: _99  and  _100
REMARK   38  A    between atoms: _99  and  _102
REMARK   39  A    between atoms: _102  and  _103
REMARK   40  A    between atoms: _103  and  _104
REMARK   41  A    between atoms: _104  and  _105
REMARK   42  A    between atoms: _114  and  _116
REMARK   43  A    between atoms: _116  and  _117
REMARK   44  A    between atoms: _116  and  _119
REMARK   45  A    between atoms: _119  and  _120
REMARK   46  A    between atoms: _120  and  _121
REMARK   47  A    between atoms: _125  and  _126
REMARK   48  A    between atoms: _131  and  _133
REMARK   49  A    between atoms: _133  and  _134
REMARK   50  A    between atoms: _133  and  _136
REMARK   51  A    between atoms: _139  and  _141
REMARK   52  A    between atoms: _141  and  _142
REMARK   53  A    between atoms: _141  and  _144
REMARK   54  A    between atoms: _144  and  _145
REMARK   55  A    between atoms: _150  and  _151
REMARK   56  A    between atoms: _153  and  _155
REMARK   57  A    between atoms: _155  and  _156
REMARK   58  A    between atoms: _158  and  _160
REMARK   59  A    between atoms: _160  and  _161
REMARK   60  A    between atoms: _160  and  _163
REMARK   61  A    between atoms: _163  and  _164
REMARK   62  A    between atoms: _167  and  _169
REMARK   63  A    between atoms: _169  and  _170
REMARK   64  A    between atoms: _169  and  _172
REMARK   65  A    between atoms: _172  and  _173
REMARK   66  A    between atoms: _176  and  _178
REMARK   67  A    between atoms: _178  and  _179
REMARK   68  A    between atoms: _178  and  _181
REMARK   69  A    between atoms: _181  and  _182
REMARK   70  A    between atoms: _187  and  _189
REMARK   71  A    between atoms: _189  and  _190
REMARK   72  A    between atoms: _189  and  _192
REMARK   73  A    between atoms: _192  and  _193
REMARK   74  A    between atoms: _196  and  _198
REMARK   75  A    between atoms: _198  and  _199
REMARK   76  A    between atoms: _198  and  _201
REMARK   77  A    between atoms: _201  and  _202
REMARK   78  A    between atoms: _202  and  _203
REMARK   79  A    between atoms: _208  and  _210
REMARK   80  A    between atoms: _210  and  _211
REMARK   81  A    between atoms: _210  and  _213
REMARK   82  A    between atoms: _213  and  _214
REMARK   83  A    between atoms: _217  and  _219
REMARK   84  A    between atoms: _219  and  _220
REMARK   85  A    between atoms: _219  and  _222
REMARK   86  A    between atoms: _222  and  _223
REMARK   87  A    between atoms: _228  and  _230
REMARK   88  A    between atoms: _230  and  _231
REMARK   89  A    between atoms: _234  and  _236
REMARK   90  A    between atoms: _236  and  _237
REMARK   91  A    between atoms: _239  and  _241
REMARK   92  A    between atoms: _241  and  _242
REMARK   93  A    between atoms: _244  and  _246
REMARK   94  A    between atoms: _246  and  _247
REMARK   95  A    between atoms: _246  and  _249
REMARK   96  A    between atoms: _249  and  _250
REMARK   97  A    between atoms: _253  and  _255
REMARK   98  A    between atoms: _255  and  _256
REMARK   99  A    between atoms: _255  and  _258
REMARK  100  A    between atoms: _258  and  _259
REMARK  101  A    between atoms: _262  and  _264
REMARK  102  A    between atoms: _264  and  _265
REMARK  103  A    between atoms: _264  and  _267
REMARK  104  A    between atoms: _267  and  _268
REMARK  105  A    between atoms: _273  and  _275
REMARK  106  A    between atoms: _275  and  _276
REMARK  107  A    between atoms: _275  and  _278
REMARK  108  A    between atoms: _278  and  _279
REMARK  109  A    between atoms: _282  and  _284
REMARK  110  A    between atoms: _284  and  _285
REMARK  111  A    between atoms: _284  and  _287
REMARK  112  A    between atoms: _287  and  _288
REMARK  113  A    between atoms: _288  and  _289
REMARK  114  A    between atoms: _292  and  _294
REMARK  115  A    between atoms: _294  and  _295
REMARK  116  A    between atoms: _294  and  _297
REMARK  117  A    between atoms: _300  and  _302
REMARK  118  A    between atoms: _302  and  _303
REMARK  119  A    between atoms: _302  and  _305
REMARK  120  A    between atoms: _305  and  _306
REMARK  121  A    between atoms: _311  and  _313
REMARK  122  A    between atoms: _313  and  _314
REMARK  123  A    between atoms: _313  and  _316
REMARK  124  A    between atoms: _316  and  _317
REMARK  125  A    between atoms: _320  and  _322
REMARK  126  A    between atoms: _322  and  _323
REMARK  127  A    between atoms: _322  and  _325
REMARK  128  A    between atoms: _325  and  _326
REMARK  129  A    between atoms: _328  and  _330
REMARK  130  A    between atoms: _330  and  _331
REMARK  131  A    between atoms: _330  and  _333
REMARK  132  A    between atoms: _333  and  _334
REMARK  133  A    between atoms: _339  and  _341
REMARK  134  A    between atoms: _341  and  _342
REMARK  135  A    between atoms: _341  and  _344
REMARK  136  A    between atoms: _347  and  _349
REMARK  137  A    between atoms: _349  and  _350
REMARK  138  A    between atoms: _349  and  _352
REMARK  139  A    between atoms: _352  and  _353
REMARK  140  A    between atoms: _358  and  _360
REMARK  141  A    between atoms: _360  and  _361
REMARK  142  A    between atoms: _360  and  _363
REMARK  143  A    between atoms: _363  and  _364
REMARK  144  A    between atoms: _364  and  _365
REMARK  145  A    between atoms: _365  and  _366
REMARK  146  A    between atoms: _375  and  _377
REMARK  147  A    between atoms: _377  and  _378
REMARK  148  A    between atoms: _377  and  _380
REMARK  149  A    between atoms: _380  and  _381
REMARK  150  A    between atoms: _381  and  _382
REMARK  151  A    between atoms: _385  and  _387
REMARK  152  A    between atoms: _387  and  _388
REMARK  153  A    between atoms: _387  and  _390
REMARK  154  A    between atoms: _390  and  _391
REMARK  155  A    between atoms: _397  and  _399
REMARK  156  A    between atoms: _399  and  _400
REMARK  157  A    between atoms: _399  and  _402
REMARK  158  A    between atoms: _402  and  _403
REMARK  159  A    between atoms: _403  and  _404
REMARK  160  A    between atoms: _404  and  _405
REMARK  161  A    between atoms: _414  and  _416
REMARK  162  A    between atoms: _416  and  _417
REMARK  163  A    between atoms: _416  and  _419
REMARK  164  A    between atoms: _419  and  _420
REMARK  165  A    between atoms: _420  and  _421
REMARK  166  A    between atoms: _421  and  _422
REMARK  167  A    between atoms: _431  and  _433
REMARK  168  A    between atoms: _433  and  _434
REMARK  169  A    between atoms: _433  and  _436
REMARK  170  A    between atoms: _436  and  _437
REMARK  171  A    between atoms: _442  and  _444
REMARK  172  A    between atoms: _444  and  _445
REMARK  173  A    between atoms: _444  and  _447
REMARK  174  A    between atoms: _447  and  _448
REMARK  175  A    between atoms: _450  and  _452
REMARK  176  A    between atoms: _452  and  _453
REMARK  177  A    between atoms: _452  and  _455
REMARK  178  A    between atoms: _455  and  _456
REMARK  179  A    between atoms: _459  and  _461
REMARK  180  A    between atoms: _461  and  _462
REMARK  181  A    between atoms: _461  and  _464
REMARK  182  A    between atoms: _464  and  _465
REMARK  183  A    between atoms: _468  and  _470
REMARK  184  A    between atoms: _470  and  _471
REMARK  185  A    between atoms: _470  and  _473
REMARK  186  A    between atoms: _476  and  _478
REMARK  187  A    between atoms: _478  and  _479
REMARK  188  A    between atoms: _481  and  _483
REMARK  189  A    between atoms: _483  and  _484
REMARK  190  A    between atoms: _483  and  _486
REMARK  191  A    between atoms: _486  and  _487
REMARK  192  A    between atoms: _490  and  _492
REMARK  193  A    between atoms: _492  and  _493
REMARK  194  A    between atoms: _495  and  _497
REMARK  195  A    between atoms: _497  and  _498
REMARK  196  A    between atoms: _497  and  _500
REMARK  197  A    between atoms: _500  and  _501
REMARK  198  A    between atoms: _504  and  _506
REMARK  199  A    between atoms: _506  and  _507
REMARK  200  A    between atoms: _506  and  _509
REMARK  201  A    between atoms: _509  and  _510
REMARK  202  A    between atoms: _515  and  _516
REMARK  203  A    between atoms: _518  and  _520
REMARK  204  A    between atoms: _520  and  _521
REMARK  205  A    between atoms: _520  and  _523
REMARK  206  A    between atoms: _523  and  _524
REMARK  207  A    between atoms: _529  and  _531
REMARK  208  A    between atoms: _531  and  _532
REMARK  209  A    between atoms: _531  and  _534
REMARK  210  A    between atoms: _537  and  _539
REMARK  211  A    between atoms: _539  and  _540
REMARK  212  A    between atoms: _543  and  _545
REMARK  213  A    between atoms: _545  and  _546
REMARK  214  A    between atoms: _545  and  _548
REMARK  215  A    between atoms: _548  and  _549
REMARK  216  A    between atoms: _552  and  _554
REMARK  217  A    between atoms: _554  and  _555
REMARK  218  A    between atoms: _554  and  _557
REMARK  219  A    between atoms: _557  and  _558
REMARK  220  A    between atoms: _558  and  _559
REMARK  221  A    between atoms: _559  and  _560
REMARK  222  A    between atoms: _569  and  _571
REMARK  223  A    between atoms: _571  and  _572
REMARK  224  A    between atoms: _571  and  _574
REMARK  225  A    between atoms: _574  and  _575
REMARK  226  A    between atoms: _578  and  _580
REMARK  227  A    between atoms: _580  and  _581
REMARK  228  A    between atoms: _584  and  _586
REMARK  229  A    between atoms: _586  and  _587
REMARK  230  A    between atoms: _590  and  _592
REMARK  231  A    between atoms: _592  and  _593
REMARK  232  A    between atoms: _592  and  _595
REMARK  233  A    between atoms: _595  and  _596
REMARK  234  A    between atoms: _596  and  _597
REMARK                            x       y       z     vdW  Elec       q    Type
REMARK                         _______ _______ _______ _____ _____    ______ ____
ROOT
ATOM      1  O   HOH     1      25.290   4.141  40.691  0.00  0.00    +0.000 OA
ENDROOT
TORSDOF 0
