REMARK  Name = ../refined-set-2016/4loi/4loi_pocket.pdb
REMARK  270 active torsions:
REMARK  status: ('A' for Active; 'I' for Inactive)
REMARK    1  A    between atoms: _1  and  _3
REMARK    2  A    between atoms: _3  and  _4
REMARK    3  A    between atoms: _6  and  _8
REMARK    4  A    between atoms: _8  and  _9
REMARK    5  A    between atoms: _8  and  _11
REMARK    6  A    between atoms: _11  and  _12
REMARK    7  A    between atoms: _15  and  _17
REMARK    8  A    between atoms: _17  and  _18
REMARK    9  A    between atoms: _21  and  _23
REMARK   10  A    between atoms: _23  and  _24
REMARK   11  A    between atoms: _23  and  _26
REMARK   12  A    between atoms: _26  and  _27
REMARK   13  A    between atoms: _37  and  _39
REMARK   14  A    between atoms: _39  and  _40
REMARK   15  A    between atoms: _39  and  _42
REMARK   16  A    between atoms: _42  and  _43
REMARK   17  A    between atoms: _45  and  _47
REMARK   18  A    between atoms: _47  and  _48
REMARK   19  A    between atoms: _47  and  _50
REMARK   20  A    between atoms: _50  and  _51
REMARK   21  A    between atoms: _56  and  _57
REMARK   22  A    between atoms: _59  and  _61
REMARK   23  A    between atoms: _61  and  _62
REMARK   24  A    between atoms: _61  and  _64
REMARK   25  A    between atoms: _64  and  _65
REMARK   26  A    between atoms: _70  and  _71
REMARK   27  A    between atoms: _73  and  _75
REMARK   28  A    between atoms: _75  and  _76
REMARK   29  A    between atoms: _75  and  _78
REMARK   30  A    between atoms: _78  and  _79
REMARK   31  A    between atoms: _82  and  _84
REMARK   32  A    between atoms: _84  and  _85
REMARK   33  A    between atoms: _87  and  _89
REMARK   34  A    between atoms: _89  and  _90
REMARK   35  A    between atoms: _89  and  _92
REMARK   36  A    between atoms: _92  and  _93
REMARK   37  A    between atoms: _98  and  _99
REMARK   38  A    between atoms: _101  and  _103
REMARK   39  A    between atoms: _103  and  _104
REMARK   40  A    between atoms: _103  and  _106
REMARK   41  A    between atoms: _106  and  _107
REMARK   42  A    between atoms: _110  and  _112
REMARK   43  A    between atoms: _112  and  _113
REMARK   44  A    between atoms: _112  and  _115
REMARK   45  A    between atoms: _115  and  _116
REMARK   46  A    between atoms: _116  and  _117
REMARK   47  A    between atoms: _117  and  _118
REMARK   48  A    between atoms: _127  and  _129
REMARK   49  A    between atoms: _129  and  _130
REMARK   50  A    between atoms: _129  and  _132
REMARK   51  A    between atoms: _132  and  _133
REMARK   52  A    between atoms: _136  and  _138
REMARK   53  A    between atoms: _138  and  _139
REMARK   54  A    between atoms: _138  and  _141
REMARK   55  A    between atoms: _141  and  _142
REMARK   56  A    between atoms: _145  and  _147
REMARK   57  A    between atoms: _147  and  _148
REMARK   58  A    between atoms: _147  and  _150
REMARK   59  A    between atoms: _150  and  _151
REMARK   60  A    between atoms: _151  and  _152
REMARK   61  A    between atoms: _157  and  _159
REMARK   62  A    between atoms: _159  and  _160
REMARK   63  A    between atoms: _159  and  _162
REMARK   64  A    between atoms: _162  and  _163
REMARK   65  A    between atoms: _168  and  _170
REMARK   66  A    between atoms: _170  and  _171
REMARK   67  A    between atoms: _174  and  _176
REMARK   68  A    between atoms: _176  and  _177
REMARK   69  A    between atoms: _179  and  _181
REMARK   70  A    between atoms: _181  and  _182
REMARK   71  A    between atoms: _181  and  _184
REMARK   72  A    between atoms: _184  and  _185
REMARK   73  A    between atoms: _188  and  _190
REMARK   74  A    between atoms: _190  and  _191
REMARK   75  A    between atoms: _190  and  _193
REMARK   76  A    between atoms: _193  and  _194
REMARK   77  A    between atoms: _194  and  _195
REMARK   78  A    between atoms: _195  and  _196
REMARK   79  A    between atoms: _205  and  _207
REMARK   80  A    between atoms: _207  and  _208
REMARK   81  A    between atoms: _207  and  _210
REMARK   82  A    between atoms: _213  and  _215
REMARK   83  A    between atoms: _215  and  _216
REMARK   84  A    between atoms: _215  and  _218
REMARK   85  A    between atoms: _218  and  _219
REMARK   86  A    between atoms: _224  and  _225
REMARK   87  A    between atoms: _227  and  _229
REMARK   88  A    between atoms: _229  and  _230
REMARK   89  A    between atoms: _229  and  _232
REMARK   90  A    between atoms: _232  and  _233
REMARK   91  A    between atoms: _235  and  _237
REMARK   92  A    between atoms: _237  and  _238
REMARK   93  A    between atoms: _237  and  _240
REMARK   94  A    between atoms: _240  and  _241
REMARK   95  A    between atoms: _246  and  _248
REMARK   96  A    between atoms: _248  and  _249
REMARK   97  A    between atoms: _248  and  _251
REMARK   98  A    between atoms: _251  and  _252
REMARK   99  A    between atoms: _252  and  _253
REMARK  100  A    between atoms: _256  and  _258
REMARK  101  A    between atoms: _258  and  _259
REMARK  102  A    between atoms: _258  and  _261
REMARK  103  A    between atoms: _261  and  _262
REMARK  104  A    between atoms: _267  and  _268
REMARK  105  A    between atoms: _270  and  _272
REMARK  106  A    between atoms: _272  and  _273
REMARK  107  A    between atoms: _276  and  _278
REMARK  108  A    between atoms: _278  and  _279
REMARK  109  A    between atoms: _278  and  _281
REMARK  110  A    between atoms: _281  and  _282
REMARK  111  A    between atoms: _286  and  _287
REMARK  112  A    between atoms: _292  and  _294
REMARK  113  A    between atoms: _294  and  _295
REMARK  114  A    between atoms: _294  and  _297
REMARK  115  A    between atoms: _297  and  _298
REMARK  116  A    between atoms: _301  and  _303
REMARK  117  A    between atoms: _303  and  _304
REMARK  118  A    between atoms: _303  and  _306
REMARK  119  A    between atoms: _306  and  _307
REMARK  120  A    between atoms: _307  and  _308
REMARK  121  A    between atoms: _313  and  _315
REMARK  122  A    between atoms: _315  and  _316
REMARK  123  A    between atoms: _315  and  _318
REMARK  124  A    between atoms: _318  and  _319
REMARK  125  A    between atoms: _322  and  _324
REMARK  126  A    between atoms: _324  and  _325
REMARK  127  A    between atoms: _324  and  _327
REMARK  128  A    between atoms: _327  and  _328
REMARK  129  A    between atoms: _331  and  _333
REMARK  130  A    between atoms: _333  and  _334
REMARK  131  A    between atoms: _333  and  _336
REMARK  132  A    between atoms: _336  and  _337
REMARK  133  A    between atoms: _343  and  _345
REMARK  134  A    between atoms: _345  and  _346
REMARK  135  A    between atoms: _348  and  _350
REMARK  136  A    between atoms: _350  and  _351
REMARK  137  A    between atoms: _350  and  _353
REMARK  138  A    between atoms: _353  and  _354
REMARK  139  A    between atoms: _357  and  _359
REMARK  140  A    between atoms: _359  and  _360
REMARK  141  A    between atoms: _363  and  _365
REMARK  142  A    between atoms: _365  and  _366
REMARK  143  A    between atoms: _365  and  _368
REMARK  144  A    between atoms: _368  and  _369
REMARK  145  A    between atoms: _379  and  _381
REMARK  146  A    between atoms: _381  and  _382
REMARK  147  A    between atoms: _381  and  _384
REMARK  148  A    between atoms: _384  and  _385
REMARK  149  A    between atoms: _387  and  _389
REMARK  150  A    between atoms: _389  and  _390
REMARK  151  A    between atoms: _389  and  _392
REMARK  152  A    between atoms: _392  and  _393
REMARK  153  A    between atoms: _398  and  _399
REMARK  154  A    between atoms: _401  and  _403
REMARK  155  A    between atoms: _403  and  _404
REMARK  156  A    between atoms: _403  and  _406
REMARK  157  A    between atoms: _406  and  _407
REMARK  158  A    between atoms: _412  and  _413
REMARK  159  A    between atoms: _415  and  _417
REMARK  160  A    between atoms: _417  and  _418
REMARK  161  A    between atoms: _417  and  _420
REMARK  162  A    between atoms: _420  and  _421
REMARK  163  A    between atoms: _424  and  _426
REMARK  164  A    between atoms: _426  and  _427
REMARK  165  A    between atoms: _429  and  _431
REMARK  166  A    between atoms: _431  and  _432
REMARK  167  A    between atoms: _431  and  _434
REMARK  168  A    between atoms: _434  and  _435
REMARK  169  A    between atoms: _440  and  _441
REMARK  170  A    between atoms: _443  and  _445
REMARK  171  A    between atoms: _445  and  _446
REMARK  172  A    between atoms: _445  and  _448
REMARK  173  A    between atoms: _448  and  _449
REMARK  174  A    between atoms: _452  and  _454
REMARK  175  A    between atoms: _454  and  _455
REMARK  176  A    between atoms: _454  and  _457
REMARK  177  A    between atoms: _457  and  _458
REMARK  178  A    between atoms: _458  and  _459
REMARK  179  A    between atoms: _459  and  _460
REMARK  180  A    between atoms: _469  and  _471
REMARK  181  A    between atoms: _471  and  _472
REMARK  182  A    between atoms: _471  and  _474
REMARK  183  A    between atoms: _474  and  _475
REMARK  184  A    between atoms: _478  and  _480
REMARK  185  A    between atoms: _480  and  _481
REMARK  186  A    between atoms: _480  and  _483
REMARK  187  A    between atoms: _483  and  _484
REMARK  188  A    between atoms: _487  and  _489
REMARK  189  A    between atoms: _489  and  _490
REMARK  190  A    between atoms: _489  and  _492
REMARK  191  A    between atoms: _492  and  _493
REMARK  192  A    between atoms: _496  and  _498
REMARK  193  A    between atoms: _498  and  _499
REMARK  194  A    between atoms: _498  and  _501
REMARK  195  A    between atoms: _501  and  _502
REMARK  196  A    between atoms: _505  and  _507
REMARK  197  A    between atoms: _507  and  _508
REMARK  198  A    between atoms: _507  and  _510
REMARK  199  A    between atoms: _510  and  _511
REMARK  200  A    between atoms: _511  and  _512
REMARK  201  A    between atoms: _517  and  _519
REMARK  202  A    between atoms: _519  and  _520
REMARK  203  A    between atoms: _519  and  _522
REMARK  204  A    between atoms: _522  and  _523
REMARK  205  A    between atoms: _528  and  _530
REMARK  206  A    between atoms: _530  and  _531
REMARK  207  A    between atoms: _534  and  _536
REMARK  208  A    between atoms: _536  and  _537
REMARK  209  A    between atoms: _536  and  _539
REMARK  210  A    between atoms: _539  and  _540
REMARK  211  A    between atoms: _543  and  _545
REMARK  212  A    between atoms: _545  and  _546
REMARK  213  A    between atoms: _545  and  _548
REMARK  214  A    between atoms: _548  and  _549
REMARK  215  A    between atoms: _549  and  _550
REMARK  216  A    between atoms: _550  and  _551
REMARK  217  A    between atoms: _560  and  _562
REMARK  218  A    between atoms: _562  and  _563
REMARK  219  A    between atoms: _562  and  _565
REMARK  220  A    between atoms: _568  and  _570
REMARK  221  A    between atoms: _570  and  _571
REMARK  222  A    between atoms: _570  and  _573
REMARK  223  A    between atoms: _573  and  _574
REMARK  224  A    between atoms: _579  and  _580
REMARK  225  A    between atoms: _582  and  _584
REMARK  226  A    between atoms: _584  and  _585
REMARK  227  A    between atoms: _584  and  _587
REMARK  228  A    between atoms: _587  and  _588
REMARK  229  A    between atoms: _590  and  _592
REMARK  230  A    between atoms: _592  and  _593
REMARK  231  A    between atoms: _592  and  _595
REMARK  232  A    between atoms: _595  and  _596
REMARK  233  A    between atoms: _601  and  _603
REMARK  234  A    between atoms: _603  and  _604
REMARK  235  A    between atoms: _603  and  _606
REMARK  236  A    between atoms: _606  and  _607
REMARK  237  A    between atoms: _609  and  _611
REMARK  238  A    between atoms: _611  and  _612
REMARK  239  A    between atoms: _611  and  _614
REMARK  240  A    between atoms: _614  and  _615
REMARK  241  A    between atoms: _615  and  _616
REMARK  242  A    between atoms: _619  and  _621
REMARK  243  A    between atoms: _621  and  _622
REMARK  244  A    between atoms: _621  and  _624
REMARK  245  A    between atoms: _624  and  _625
REMARK  246  A    between atoms: _630  and  _631
REMARK  247  A    between atoms: _633  and  _635
REMARK  248  A    between atoms: _635  and  _636
REMARK  249  A    between atoms: _639  and  _641
REMARK  250  A    between atoms: _641  and  _642
REMARK  251  A    between atoms: _641  and  _644
REMARK  252  A    between atoms: _644  and  _645
REMARK  253  A    between atoms: _649  and  _650
REMARK  254  A    between atoms: _655  and  _657
REMARK  255  A    between atoms: _657  and  _658
REMARK  256  A    between atoms: _657  and  _660
REMARK  257  A    between atoms: _660  and  _661
REMARK  258  A    between atoms: _664  and  _666
REMARK  259  A    between atoms: _666  and  _667
REMARK  260  A    between atoms: _666  and  _669
REMARK  261  A    between atoms: _669  and  _670
REMARK  262  A    between atoms: _670  and  _671
REMARK  263  A    between atoms: _676  and  _678
REMARK  264  A    between atoms: _678  and  _679
REMARK  265  A    between atoms: _678  and  _681
REMARK  266  A    between atoms: _681  and  _682
REMARK  267  A    between atoms: _685  and  _687
REMARK  268  A    between atoms: _687  and  _688
REMARK  269  A    between atoms: _687  and  _690
REMARK  270  A    between atoms: _690  and  _691
REMARK                            x       y       z     vdW  Elec       q    Type
REMARK                         _______ _______ _______ _____ _____    ______ ____
ROOT
ATOM      1  C   TYR A   7      38.449  29.732   5.980  0.00  0.00    +0.241 C 
ATOM      2  N   ILE A   8      38.377  31.035   5.993  0.00  0.00    -0.297 N 
ATOM      3  H   ILE A   8      37.581  31.494   6.480  0.00  0.00    +0.150 HD
ATOM      4  O   TYR A   7      39.413  29.132   5.496  0.00  0.00    -0.273 OA
ENDROOT
BRANCH   2   5
ATOM      5  CA  ILE A   8      39.406  31.880   5.329  0.00  0.00    +0.149 C 
BRANCH   5   6
ATOM      6  C   ILE A   8      40.798  31.730   5.924  0.00  0.00    +0.241 C 
ATOM      7  N   GLY A   9      40.881  31.778   7.248  0.00  0.00    -0.295 N 
ATOM      8  H   GLY A   9      40.000  31.777   7.800  0.00  0.00    +0.150 HD
ATOM      9  O   ILE A   8      41.796  31.596   5.180  0.00  0.00    -0.273 OA
BRANCH   7  10
ATOM     10  CA  GLY A   9      42.141  31.832   7.959  0.00  0.00    +0.176 C 
BRANCH  10  11
ATOM     11  C   GLY A   9      42.672  30.492   8.435  0.00  0.00    +0.243 C 
ATOM     12  O   GLY A   9      43.757  30.447   9.015  0.00  0.00    -0.273 OA
ATOM     13  N   TYR A  10      41.977  29.399   8.115  0.00  0.00    -0.297 N 
ATOM     14  H   TYR A  10      41.104  29.476   7.556  0.00  0.00    +0.150 HD
BRANCH  13  15
ATOM     15  CA  TYR A  10      42.447  28.119   8.550  0.00  0.00    +0.153 C 
BRANCH  15  16
ATOM     16  C   TYR A  10      42.154  27.000   7.558  0.00  0.00    +0.241 C 
ATOM     17  N   LEU A  11      40.890  26.613   7.404  0.00  0.00    -0.297 N 
ATOM     18  H   LEU A  11      40.125  27.113   7.901  0.00  0.00    +0.150 HD
ATOM     19  O   TYR A  10      43.122  26.516   6.913  0.00  0.00    -0.273 OA
BRANCH  17  20
ATOM     20  CA  LEU A  11      40.579  25.464   6.520  0.00  0.00    +0.149 C 
BRANCH  20  21
ATOM     21  C   LEU A  11      41.067  25.670   5.075  0.00  0.00    +0.241 C 
ATOM     22  O   LEU A  11      41.624  24.765   4.518  0.00  0.00    -0.273 OA
ATOM     23  N   ARG A  12      40.849  26.852   4.513  0.00  0.00    -0.297 N 
ATOM     24  H   ARG A  12      40.354  27.580   5.066  0.00  0.00    +0.150 HD
BRANCH  23  25
ATOM     25  CA  ARG A  12      41.279  27.183   3.132  0.00  0.00    +0.149 C 
BRANCH  25  26
ATOM     26  C   ARG A  12      42.791  27.068   3.024  0.00  0.00    +0.241 C 
ATOM     27  N   LEU A  13      43.496  27.282   4.120  0.00  0.00    -0.297 N 
ATOM     28  H   LEU A  13      43.001  27.526   5.002  0.00  0.00    +0.150 HD
ATOM     29  O   ARG A  12      43.322  26.732   1.967  0.00  0.00    -0.273 OA
BRANCH  27  30
ATOM     30  CA  LEU A  13      44.930  27.186   4.125  0.00  0.00    +0.149 C 
BRANCH  30  31
ATOM     31  C   LEU A  13      45.435  25.780   4.324  0.00  0.00    +0.241 C 
ATOM     32  N   ILE A  14      44.810  25.000   5.195  0.00  0.00    -0.298 N 
ATOM     33  H   ILE A  14      43.941  25.321   5.667  0.00  0.00    +0.150 HD
ATOM     34  O   LEU A  13      46.432  25.418   3.729  0.00  0.00    -0.273 OA
BRANCH  32  35
ATOM     35  CA  ILE A  14      45.364  23.690   5.476  0.00  0.00    +0.137 C 
BRANCH  35  36
ATOM     36  CB  ILE A  14      45.381  23.339   6.964  0.00  0.00    +0.026 C 
ATOM     37  CG2 ILE A  14      46.134  24.382   7.775  0.00  0.00    +0.002 C 
BRANCH  36  38
ATOM     38  CG1 ILE A  14      43.991  23.093   7.481  0.00  0.00    +0.002 C 
ATOM     39  CD1 ILE A  14      44.012  22.451   8.835  0.00  0.00    +0.000 C 
ENDBRANCH  36  38
ENDBRANCH  35  36
BRANCH  35  40
ATOM     40  C   ILE A  14      44.774  22.517   4.677  0.00  0.00    +0.227 C 
ATOM     41  O   ILE A  14      45.473  21.554   4.456  0.00  0.00    -0.286 OA
ENDBRANCH  35  40
ENDBRANCH  32  35
ENDBRANCH  30  31
BRANCH  30  42
ATOM     42  CB  LEU A  13      45.564  28.073   5.200  0.00  0.00    +0.029 C 
BRANCH  42  43
ATOM     43  CG  LEU A  13      45.219  29.562   5.084  0.00  0.00    +0.002 C 
ATOM     44  CD2 LEU A  13      45.827  30.277   6.274  0.00  0.00    +0.000 C 
ATOM     45  CD1 LEU A  13      45.671  30.159   3.758  0.00  0.00    +0.000 C 
ENDBRANCH  42  43
ENDBRANCH  30  42
ENDBRANCH  27  30
ENDBRANCH  25  26
BRANCH  25  46
ATOM     46  CB  ARG A  12      40.798  28.593   2.780  0.00  0.00    +0.033 C 
BRANCH  46  47
ATOM     47  CG  ARG A  12      40.972  29.076   1.364  0.00  0.00    +0.045 C 
BRANCH  47  48
ATOM     48  CD  ARG A  12      40.539  30.539   1.192  0.00  0.00    +0.174 C 
BRANCH  48  49
ATOM     49  NE  ARG A  12      41.340  31.440   2.046  0.00  0.00    -0.265 N 
ATOM     50  HE  ARG A  12      40.902  31.779   2.926  0.00  0.00    +0.259 HD
ATOM     51  CZ  ARG A  12      42.580  31.854   1.780  0.00  0.00    +0.342 C 
ATOM     52  NH2 ARG A  12      43.211  32.648   2.639  0.00  0.00    -0.292 N 
ATOM     53 HH21 ARG A  12      42.738  32.945   3.516  0.00  0.00    +0.255 HD
ATOM     54 HH22 ARG A  12      44.178  32.972   2.434  0.00  0.00    +0.255 HD
ATOM     55  NH1 ARG A  12      43.191  31.495   0.649  0.00  0.00    -0.292 N 
ATOM     56 HH11 ARG A  12      44.158  31.824   0.453  0.00  0.00    +0.255 HD
ATOM     57 HH12 ARG A  12      42.700  30.886  -0.036  0.00  0.00    +0.255 HD
ENDBRANCH  48  49
ENDBRANCH  47  48
ENDBRANCH  46  47
ENDBRANCH  25  46
ENDBRANCH  23  25
ENDBRANCH  20  21
BRANCH  20  58
ATOM     58  CB  LEU A  11      39.112  25.161   6.524  0.00  0.00    +0.029 C 
BRANCH  58  59
ATOM     59  CG  LEU A  11      38.524  24.665   7.866  0.00  0.00    +0.002 C 
ATOM     60  CD2 LEU A  11      39.289  23.539   8.473  0.00  0.00    +0.000 C 
ATOM     61  CD1 LEU A  11      37.070  24.340   7.749  0.00  0.00    +0.000 C 
ENDBRANCH  58  59
ENDBRANCH  20  58
ENDBRANCH  17  20
ENDBRANCH  15  16
BRANCH  15  62
ATOM     62  CB  TYR A  10      41.910  27.804   9.987  0.00  0.00    +0.055 C 
BRANCH  62  63
ATOM     63  CG  TYR A  10      42.390  26.504  10.551  0.00  0.00    -0.020 A 
ATOM     64  CD2 TYR A  10      43.697  26.316  10.812  0.00  0.00    -0.001 A 
ATOM     65  CE2 TYR A  10      44.191  25.123  11.301  0.00  0.00    +0.036 A 
ATOM     66  CZ  TYR A  10      43.317  24.067  11.556  0.00  0.00    +0.134 A 
ATOM     67  CE1 TYR A  10      41.990  24.243  11.314  0.00  0.00    +0.036 A 
ATOM     68  CD1 TYR A  10      41.511  25.445  10.804  0.00  0.00    -0.001 A 
BRANCH  66  69
ATOM     69  OH  TYR A  10      43.847  22.903  12.086  0.00  0.00    -0.506 OA
ATOM     70  HH  TYR A  10      43.448  22.736  12.977  0.00  0.00    +0.292 HD
ENDBRANCH  66  69
ENDBRANCH  62  63
ENDBRANCH  15  62
ENDBRANCH  13  15
ENDBRANCH  10  11
ENDBRANCH   7  10
ENDBRANCH   5   6
BRANCH   5  71
ATOM     71  CB  ILE A   8      38.983  33.359   5.411  0.00  0.00    +0.027 C 
ATOM     72  CG2 ILE A   8      40.100  34.332   5.009  0.00  0.00    +0.002 C 
BRANCH  71  73
ATOM     73  CG1 ILE A   8      37.722  33.620   4.574  0.00  0.00    +0.002 C 
ATOM     74  CD1 ILE A   8      37.778  33.255   3.133  0.00  0.00    +0.000 C 
ENDBRANCH  71  73
ENDBRANCH   5  71
ENDBRANCH   2   5
BRANCH   1  75
ATOM     75  CA  TYR A   7      37.305  28.971   6.635  0.00  0.00    +0.153 C 
BRANCH  75  78
ATOM     76  C   TYR A   6      37.951  29.080   8.958  0.00  0.00    +0.241 C 
ATOM     77  O   TYR A   6      38.889  28.355   8.767  0.00  0.00    -0.273 OA
ATOM     78  N   TYR A   7      37.099  29.414   8.035  0.00  0.00    -0.297 N 
ATOM     79  H   TYR A   7      36.271  29.993   8.279  0.00  0.00    +0.150 HD
BRANCH  76  80
ATOM     80  CA  TYR A   6      37.716  29.639  10.358  0.00  0.00    +0.153 C 
BRANCH  80  82
ATOM     81  C   SER A   5      37.946  32.036   9.841  0.00  0.00    +0.243 C 
ATOM     82  N   TYR A   6      37.197  31.000  10.240  0.00  0.00    -0.297 N 
ATOM     83  H   TYR A   6      36.199  31.172  10.477  0.00  0.00    +0.150 HD
ATOM     84  O   SER A   5      39.108  31.906   9.434  0.00  0.00    -0.273 OA
BRANCH  81  85
ATOM     85  CA  SER A   5      37.266  33.374   9.858  0.00  0.00    +0.178 C 
BRANCH  85  87
ATOM     86  C   TRP A   4      35.675  32.997   8.101  0.00  0.00    +0.241 C 
ATOM     87  N   SER A   5      35.921  33.332   9.366  0.00  0.00    -0.295 N 
ATOM     88  H   SER A   5      35.131  33.565  10.001  0.00  0.00    +0.150 HD
ATOM     89  O   TRP A   4      36.597  32.646   7.362  0.00  0.00    -0.273 OA
BRANCH  86  90
ATOM     90  CA  TRP A   4      34.229  32.924   7.693  0.00  0.00    +0.153 C 
BRANCH  90  92
ATOM     91  C   ALA A   3      33.540  31.156   9.241  0.00  0.00    +0.241 C 
ATOM     92  N   TRP A   4      33.368  32.382   8.770  0.00  0.00    -0.297 N 
ATOM     93  H   TRP A   4      32.612  32.977   9.165  0.00  0.00    +0.150 HD
ATOM     94  O   ALA A   3      34.353  30.383   8.766  0.00  0.00    -0.273 OA
BRANCH  91  95
ATOM     95  CA  ALA A   3      32.686  30.748  10.428  0.00  0.00    +0.149 C 
ATOM     96  CB  ALA A   3      31.242  30.425   9.975  0.00  0.00    +0.031 C 
BRANCH  95  99
ATOM     97  C   LEU A   2      33.759  32.089  12.125  0.00  0.00    +0.241 C 
ATOM     98  O   LEU A   2      34.825  31.544  11.956  0.00  0.00    -0.273 OA
ATOM     99  N   ALA A   3      32.672  31.788  11.436  0.00  0.00    -0.297 N 
ATOM    100  H   ALA A   3      31.790  32.308  11.621  0.00  0.00    +0.150 HD
BRANCH  97 101
ATOM    101  CA  LEU A   2      33.659  33.193  13.167  0.00  0.00    +0.149 C 
BRANCH 101 103
ATOM    102  C   GLY A   1      33.117  35.074  11.694  0.00  0.00    +0.240 C 
ATOM    103  N   LEU A   2      32.803  34.335  12.746  0.00  0.00    -0.297 N 
ATOM    104  H   LEU A   2      31.943  34.556  13.288  0.00  0.00    +0.150 HD
ATOM    105  O   GLY A   1      34.135  34.874  11.049  0.00  0.00    -0.274 OA
BRANCH 102 106
ATOM    106  CA  GLY A   1      32.197  36.229  11.346  0.00  0.00    +0.169 C 
BRANCH 106 107
ATOM    107  N   GLY A   1      30.812  35.833  11.333  0.00  0.00    -0.236 NA
ATOM    108  H   GLY A   1      30.160  36.290  12.002  0.00  0.00    +0.142 HD
ENDBRANCH 106 107
ENDBRANCH 102 106
ENDBRANCH 101 103
BRANCH 101 109
ATOM    109  CB  LEU A   2      33.167  32.582  14.466  0.00  0.00    +0.029 C 
BRANCH 109 110
ATOM    110  CG  LEU A   2      33.141  33.530  15.629  0.00  0.00    +0.002 C 
ATOM    111  CD2 LEU A   2      32.727  32.813  16.932  0.00  0.00    +0.000 C 
ATOM    112  CD1 LEU A   2      34.441  34.283  15.855  0.00  0.00    +0.000 C 
ENDBRANCH 109 110
ENDBRANCH 101 109
ENDBRANCH  97 101
ENDBRANCH  95  99
ENDBRANCH  91  95
ENDBRANCH  90  92
BRANCH  90 113
ATOM    113  CB  TRP A   4      33.643  34.247   7.175  0.00  0.00    +0.057 C 
BRANCH 113 114
ATOM    114  CG  TRP A   4      32.548  34.025   6.235  0.00  0.00    -0.002 A 
ATOM    115  CD1 TRP A   4      31.230  34.009   6.519  0.00  0.00    +0.068 A 
ATOM    116  NE1 TRP A   4      30.506  33.659   5.387  0.00  0.00    -0.352 N 
ATOM    117  HE1 TRP A   4      29.471  33.580   5.330  0.00  0.00    +0.166 HD
ATOM    118  CE2 TRP A   4      31.379  33.436   4.361  0.00  0.00    +0.056 A 
ATOM    119  CZ2 TRP A   4      31.126  33.065   3.030  0.00  0.00    +0.017 A 
ATOM    120  CH2 TRP A   4      32.208  32.944   2.208  0.00  0.00    +0.001 A 
ATOM    121  CZ3 TRP A   4      33.503  33.151   2.656  0.00  0.00    +0.000 A 
ATOM    122  CE3 TRP A   4      33.753  33.534   3.956  0.00  0.00    +0.001 A 
ATOM    123  CD2 TRP A   4      32.660  33.667   4.844  0.00  0.00    +0.013 A 
ENDBRANCH 113 114
ENDBRANCH  90 113
ENDBRANCH  86  90
ENDBRANCH  85  87
BRANCH  85 124
ATOM    124  CB  SER A   5      37.233  33.882  11.326  0.00  0.00    +0.166 C 
BRANCH 124 125
ATOM    125  OG  SER A   5      38.508  33.952  11.875  0.00  0.00    -0.380 OA
ATOM    126  H   SER A   5      38.447  34.278  12.808  0.00  0.00    +0.211 HD
ENDBRANCH 124 125
ENDBRANCH  85 124
ENDBRANCH  81  85
ENDBRANCH  80  82
BRANCH  80 127
ATOM    127  CB  TYR A   6      36.709  28.825  11.143  0.00  0.00    +0.055 C 
BRANCH 127 128
ATOM    128  CG  TYR A   6      37.195  27.433  11.541  0.00  0.00    -0.020 A 
ATOM    129  CD2 TYR A   6      38.283  27.242  12.376  0.00  0.00    -0.001 A 
ATOM    130  CE2 TYR A   6      38.700  25.946  12.748  0.00  0.00    +0.036 A 
ATOM    131  CZ  TYR A   6      37.982  24.871  12.278  0.00  0.00    +0.134 A 
ATOM    132  CE1 TYR A   6      36.918  25.046  11.457  0.00  0.00    +0.036 A 
ATOM    133  CD1 TYR A   6      36.534  26.317  11.069  0.00  0.00    -0.001 A 
BRANCH 131 134
ATOM    134  OH  TYR A   6      38.387  23.620  12.646  0.00  0.00    -0.506 OA
ATOM    135  HH  TYR A   6      39.173  23.691  13.243  0.00  0.00    +0.292 HD
ENDBRANCH 131 134
ENDBRANCH 127 128
ENDBRANCH  80 127
ENDBRANCH  76  80
ENDBRANCH  75  78
BRANCH  75 136
ATOM    136  CB  TYR A   7      36.050  29.086   5.859  0.00  0.00    +0.055 C 
BRANCH 136 137
ATOM    137  CG  TYR A   7      36.253  28.908   4.366  0.00  0.00    -0.020 A 
ATOM    138  CD2 TYR A   7      36.600  27.700   3.843  0.00  0.00    -0.001 A 
ATOM    139  CE2 TYR A   7      36.831  27.541   2.466  0.00  0.00    +0.036 A 
ATOM    140  CZ  TYR A   7      36.684  28.606   1.628  0.00  0.00    +0.134 A 
ATOM    141  CE1 TYR A   7      36.328  29.843   2.126  0.00  0.00    +0.036 A 
ATOM    142  CD1 TYR A   7      36.132  29.995   3.510  0.00  0.00    -0.001 A 
BRANCH 140 143
ATOM    143  OH  TYR A   7      36.863  28.450   0.252  0.00  0.00    -0.506 OA
ATOM    144  HH  TYR A   7      37.114  27.512   0.057  0.00  0.00    +0.292 HD
ENDBRANCH 140 143
ENDBRANCH 136 137
ENDBRANCH  75 136
ENDBRANCH   1  75
TORSDOF 55
REMARK  Name = ../refined-set-2016/4loi/4loi_pocket.pdb
REMARK  270 active torsions:
REMARK  status: ('A' for Active; 'I' for Inactive)
REMARK    1  A    between atoms: _1  and  _3
REMARK    2  A    between atoms: _3  and  _4
REMARK    3  A    between atoms: _6  and  _8
REMARK    4  A    between atoms: _8  and  _9
REMARK    5  A    between atoms: _8  and  _11
REMARK    6  A    between atoms: _11  and  _12
REMARK    7  A    between atoms: _15  and  _17
REMARK    8  A    between atoms: _17  and  _18
REMARK    9  A    between atoms: _21  and  _23
REMARK   10  A    between atoms: _23  and  _24
REMARK   11  A    between atoms: _23  and  _26
REMARK   12  A    between atoms: _26  and  _27
REMARK   13  A    between atoms: _37  and  _39
REMARK   14  A    between atoms: _39  and  _40
REMARK   15  A    between atoms: _39  and  _42
REMARK   16  A    between atoms: _42  and  _43
REMARK   17  A    between atoms: _45  and  _47
REMARK   18  A    between atoms: _47  and  _48
REMARK   19  A    between atoms: _47  and  _50
REMARK   20  A    between atoms: _50  and  _51
REMARK   21  A    between atoms: _56  and  _57
REMARK   22  A    between atoms: _59  and  _61
REMARK   23  A    between atoms: _61  and  _62
REMARK   24  A    between atoms: _61  and  _64
REMARK   25  A    between atoms: _64  and  _65
REMARK   26  A    between atoms: _70  and  _71
REMARK   27  A    between atoms: _73  and  _75
REMARK   28  A    between atoms: _75  and  _76
REMARK   29  A    between atoms: _75  and  _78
REMARK   30  A    between atoms: _78  and  _79
REMARK   31  A    between atoms: _82  and  _84
REMARK   32  A    between atoms: _84  and  _85
REMARK   33  A    between atoms: _87  and  _89
REMARK   34  A    between atoms: _89  and  _90
REMARK   35  A    between atoms: _89  and  _92
REMARK   36  A    between atoms: _92  and  _93
REMARK   37  A    between atoms: _98  and  _99
REMARK   38  A    between atoms: _101  and  _103
REMARK   39  A    between atoms: _103  and  _104
REMARK   40  A    between atoms: _103  and  _106
REMARK   41  A    between atoms: _106  and  _107
REMARK   42  A    between atoms: _110  and  _112
REMARK   43  A    between atoms: _112  and  _113
REMARK   44  A    between atoms: _112  and  _115
REMARK   45  A    between atoms: _115  and  _116
REMARK   46  A    between atoms: _116  and  _117
REMARK   47  A    between atoms: _117  and  _118
REMARK   48  A    between atoms: _127  and  _129
REMARK   49  A    between atoms: _129  and  _130
REMARK   50  A    between atoms: _129  and  _132
REMARK   51  A    between atoms: _132  and  _133
REMARK   52  A    between atoms: _136  and  _138
REMARK   53  A    between atoms: _138  and  _139
REMARK   54  A    between atoms: _138  and  _141
REMARK   55  A    between atoms: _141  and  _142
REMARK   56  A    between atoms: _145  and  _147
REMARK   57  A    between atoms: _147  and  _148
REMARK   58  A    between atoms: _147  and  _150
REMARK   59  A    between atoms: _150  and  _151
REMARK   60  A    between atoms: _151  and  _152
REMARK   61  A    between atoms: _157  and  _159
REMARK   62  A    between atoms: _159  and  _160
REMARK   63  A    between atoms: _159  and  _162
REMARK   64  A    between atoms: _162  and  _163
REMARK   65  A    between atoms: _168  and  _170
REMARK   66  A    between atoms: _170  and  _171
REMARK   67  A    between atoms: _174  and  _176
REMARK   68  A    between atoms: _176  and  _177
REMARK   69  A    between atoms: _179  and  _181
REMARK   70  A    between atoms: _181  and  _182
REMARK   71  A    between atoms: _181  and  _184
REMARK   72  A    between atoms: _184  and  _185
REMARK   73  A    between atoms: _188  and  _190
REMARK   74  A    between atoms: _190  and  _191
REMARK   75  A    between atoms: _190  and  _193
REMARK   76  A    between atoms: _193  and  _194
REMARK   77  A    between atoms: _194  and  _195
REMARK   78  A    between atoms: _195  and  _196
REMARK   79  A    between atoms: _205  and  _207
REMARK   80  A    between atoms: _207  and  _208
REMARK   81  A    between atoms: _207  and  _210
REMARK   82  A    between atoms: _213  and  _215
REMARK   83  A    between atoms: _215  and  _216
REMARK   84  A    between atoms: _215  and  _218
REMARK   85  A    between atoms: _218  and  _219
REMARK   86  A    between atoms: _224  and  _225
REMARK   87  A    between atoms: _227  and  _229
REMARK   88  A    between atoms: _229  and  _230
REMARK   89  A    between atoms: _229  and  _232
REMARK   90  A    between atoms: _232  and  _233
REMARK   91  A    between atoms: _235  and  _237
REMARK   92  A    between atoms: _237  and  _238
REMARK   93  A    between atoms: _237  and  _240
REMARK   94  A    between atoms: _240  and  _241
REMARK   95  A    between atoms: _246  and  _248
REMARK   96  A    between atoms: _248  and  _249
REMARK   97  A    between atoms: _248  and  _251
REMARK   98  A    between atoms: _251  and  _252
REMARK   99  A    between atoms: _252  and  _253
REMARK  100  A    between atoms: _256  and  _258
REMARK  101  A    between atoms: _258  and  _259
REMARK  102  A    between atoms: _258  and  _261
REMARK  103  A    between atoms: _261  and  _262
REMARK  104  A    between atoms: _267  and  _268
REMARK  105  A    between atoms: _270  and  _272
REMARK  106  A    between atoms: _272  and  _273
REMARK  107  A    between atoms: _276  and  _278
REMARK  108  A    between atoms: _278  and  _279
REMARK  109  A    between atoms: _278  and  _281
REMARK  110  A    between atoms: _281  and  _282
REMARK  111  A    between atoms: _286  and  _287
REMARK  112  A    between atoms: _292  and  _294
REMARK  113  A    between atoms: _294  and  _295
REMARK  114  A    between atoms: _294  and  _297
REMARK  115  A    between atoms: _297  and  _298
REMARK  116  A    between atoms: _301  and  _303
REMARK  117  A    between atoms: _303  and  _304
REMARK  118  A    between atoms: _303  and  _306
REMARK  119  A    between atoms: _306  and  _307
REMARK  120  A    between atoms: _307  and  _308
REMARK  121  A    between atoms: _313  and  _315
REMARK  122  A    between atoms: _315  and  _316
REMARK  123  A    between atoms: _315  and  _318
REMARK  124  A    between atoms: _318  and  _319
REMARK  125  A    between atoms: _322  and  _324
REMARK  126  A    between atoms: _324  and  _325
REMARK  127  A    between atoms: _324  and  _327
REMARK  128  A    between atoms: _327  and  _328
REMARK  129  A    between atoms: _331  and  _333
REMARK  130  A    between atoms: _333  and  _334
REMARK  131  A    between atoms: _333  and  _336
REMARK  132  A    between atoms: _336  and  _337
REMARK  133  A    between atoms: _343  and  _345
REMARK  134  A    between atoms: _345  and  _346
REMARK  135  A    between atoms: _348  and  _350
REMARK  136  A    between atoms: _350  and  _351
REMARK  137  A    between atoms: _350  and  _353
REMARK  138  A    between atoms: _353  and  _354
REMARK  139  A    between atoms: _357  and  _359
REMARK  140  A    between atoms: _359  and  _360
REMARK  141  A    between atoms: _363  and  _365
REMARK  142  A    between atoms: _365  and  _366
REMARK  143  A    between atoms: _365  and  _368
REMARK  144  A    between atoms: _368  and  _369
REMARK  145  A    between atoms: _379  and  _381
REMARK  146  A    between atoms: _381  and  _382
REMARK  147  A    between atoms: _381  and  _384
REMARK  148  A    between atoms: _384  and  _385
REMARK  149  A    between atoms: _387  and  _389
REMARK  150  A    between atoms: _389  and  _390
REMARK  151  A    between atoms: _389  and  _392
REMARK  152  A    between atoms: _392  and  _393
REMARK  153  A    between atoms: _398  and  _399
REMARK  154  A    between atoms: _401  and  _403
REMARK  155  A    between atoms: _403  and  _404
REMARK  156  A    between atoms: _403  and  _406
REMARK  157  A    between atoms: _406  and  _407
REMARK  158  A    between atoms: _412  and  _413
REMARK  159  A    between atoms: _415  and  _417
REMARK  160  A    between atoms: _417  and  _418
REMARK  161  A    between atoms: _417  and  _420
REMARK  162  A    between atoms: _420  and  _421
REMARK  163  A    between atoms: _424  and  _426
REMARK  164  A    between atoms: _426  and  _427
REMARK  165  A    between atoms: _429  and  _431
REMARK  166  A    between atoms: _431  and  _432
REMARK  167  A    between atoms: _431  and  _434
REMARK  168  A    between atoms: _434  and  _435
REMARK  169  A    between atoms: _440  and  _441
REMARK  170  A    between atoms: _443  and  _445
REMARK  171  A    between atoms: _445  and  _446
REMARK  172  A    between atoms: _445  and  _448
REMARK  173  A    between atoms: _448  and  _449
REMARK  174  A    between atoms: _452  and  _454
REMARK  175  A    between atoms: _454  and  _455
REMARK  176  A    between atoms: _454  and  _457
REMARK  177  A    between atoms: _457  and  _458
REMARK  178  A    between atoms: _458  and  _459
REMARK  179  A    between atoms: _459  and  _460
REMARK  180  A    between atoms: _469  and  _471
REMARK  181  A    between atoms: _471  and  _472
REMARK  182  A    between atoms: _471  and  _474
REMARK  183  A    between atoms: _474  and  _475
REMARK  184  A    between atoms: _478  and  _480
REMARK  185  A    between atoms: _480  and  _481
REMARK  186  A    between atoms: _480  and  _483
REMARK  187  A    between atoms: _483  and  _484
REMARK  188  A    between atoms: _487  and  _489
REMARK  189  A    between atoms: _489  and  _490
REMARK  190  A    between atoms: _489  and  _492
REMARK  191  A    between atoms: _492  and  _493
REMARK  192  A    between atoms: _496  and  _498
REMARK  193  A    between atoms: _498  and  _499
REMARK  194  A    between atoms: _498  and  _501
REMARK  195  A    between atoms: _501  and  _502
REMARK  196  A    between atoms: _505  and  _507
REMARK  197  A    between atoms: _507  and  _508
REMARK  198  A    between atoms: _507  and  _510
REMARK  199  A    between atoms: _510  and  _511
REMARK  200  A    between atoms: _511  and  _512
REMARK  201  A    between atoms: _517  and  _519
REMARK  202  A    between atoms: _519  and  _520
REMARK  203  A    between atoms: _519  and  _522
REMARK  204  A    between atoms: _522  and  _523
REMARK  205  A    between atoms: _528  and  _530
REMARK  206  A    between atoms: _530  and  _531
REMARK  207  A    between atoms: _534  and  _536
REMARK  208  A    between atoms: _536  and  _537
REMARK  209  A    between atoms: _536  and  _539
REMARK  210  A    between atoms: _539  and  _540
REMARK  211  A    between atoms: _543  and  _545
REMARK  212  A    between atoms: _545  and  _546
REMARK  213  A    between atoms: _545  and  _548
REMARK  214  A    between atoms: _548  and  _549
REMARK  215  A    between atoms: _549  and  _550
REMARK  216  A    between atoms: _550  and  _551
REMARK  217  A    between atoms: _560  and  _562
REMARK  218  A    between atoms: _562  and  _563
REMARK  219  A    between atoms: _562  and  _565
REMARK  220  A    between atoms: _568  and  _570
REMARK  221  A    between atoms: _570  and  _571
REMARK  222  A    between atoms: _570  and  _573
REMARK  223  A    between atoms: _573  and  _574
REMARK  224  A    between atoms: _579  and  _580
REMARK  225  A    between atoms: _582  and  _584
REMARK  226  A    between atoms: _584  and  _585
REMARK  227  A    between atoms: _584  and  _587
REMARK  228  A    between atoms: _587  and  _588
REMARK  229  A    between atoms: _590  and  _592
REMARK  230  A    between atoms: _592  and  _593
REMARK  231  A    between atoms: _592  and  _595
REMARK  232  A    between atoms: _595  and  _596
REMARK  233  A    between atoms: _601  and  _603
REMARK  234  A    between atoms: _603  and  _604
REMARK  235  A    between atoms: _603  and  _606
REMARK  236  A    between atoms: _606  and  _607
REMARK  237  A    between atoms: _609  and  _611
REMARK  238  A    between atoms: _611  and  _612
REMARK  239  A    between atoms: _611  and  _614
REMARK  240  A    between atoms: _614  and  _615
REMARK  241  A    between atoms: _615  and  _616
REMARK  242  A    between atoms: _619  and  _621
REMARK  243  A    between atoms: _621  and  _622
REMARK  244  A    between atoms: _621  and  _624
REMARK  245  A    between atoms: _624  and  _625
REMARK  246  A    between atoms: _630  and  _631
REMARK  247  A    between atoms: _633  and  _635
REMARK  248  A    between atoms: _635  and  _636
REMARK  249  A    between atoms: _639  and  _641
REMARK  250  A    between atoms: _641  and  _642
REMARK  251  A    between atoms: _641  and  _644
REMARK  252  A    between atoms: _644  and  _645
REMARK  253  A    between atoms: _649  and  _650
REMARK  254  A    between atoms: _655  and  _657
REMARK  255  A    between atoms: _657  and  _658
REMARK  256  A    between atoms: _657  and  _660
REMARK  257  A    between atoms: _660  and  _661
REMARK  258  A    between atoms: _664  and  _666
REMARK  259  A    between atoms: _666  and  _667
REMARK  260  A    between atoms: _666  and  _669
REMARK  261  A    between atoms: _669  and  _670
REMARK  262  A    between atoms: _670  and  _671
REMARK  263  A    between atoms: _676  and  _678
REMARK  264  A    between atoms: _678  and  _679
REMARK  265  A    between atoms: _678  and  _681
REMARK  266  A    between atoms: _681  and  _682
REMARK  267  A    between atoms: _685  and  _687
REMARK  268  A    between atoms: _687  and  _688
REMARK  269  A    between atoms: _687  and  _690
REMARK  270  A    between atoms: _690  and  _691
REMARK                            x       y       z     vdW  Elec       q    Type
REMARK                         _______ _______ _______ _____ _____    ______ ____
ROOT
ATOM      1  CB  GLN A   1      51.345  23.337   7.222  0.00  0.00    +0.035 C 
ENDROOT
BRANCH   1   2
ATOM      2  CA  GLN A   1      52.751  23.390   7.760  0.00  0.00    +0.134 C 
BRANCH   2   3
ATOM      3  N   GLN A   1      52.901  22.577   8.934  0.00  0.00    -0.239 NA
ATOM      4  H   GLN A   1      52.183  22.637   9.684  0.00  0.00    +0.142 HD
ENDBRANCH   2   3
BRANCH   2   5
ATOM      5  C   GLN A   1      53.093  24.798   8.199  0.00  0.00    +0.224 C 
ATOM      6  O   GLN A   1      52.544  25.286   9.189  0.00  0.00    -0.287 OA
ENDBRANCH   2   5
ENDBRANCH   1   2
BRANCH   1   7
ATOM      7  CG  GLN A   1      51.079  24.369   6.159  0.00  0.00    +0.087 C 
BRANCH   7   8
ATOM      8  CD  GLN A   1      49.751  24.172   5.445  0.00  0.00    +0.219 C 
ATOM      9  OE1 GLN A   1      49.233  23.076   5.399  0.00  0.00    -0.275 OA
ATOM     10  NE2 GLN A   1      49.226  25.221   4.854  0.00  0.00    -0.329 N 
ATOM     11 HE21 GLN A   1      49.700  26.145   4.916  0.00  0.00    +0.145 HD
ATOM     12 HE22 GLN A   1      48.336  25.128   4.324  0.00  0.00    +0.145 HD
ENDBRANCH   7   8
ENDBRANCH   1   7
TORSDOF 5
REMARK  Name = ../refined-set-2016/4loi/4loi_pocket.pdb
REMARK  270 active torsions:
REMARK  status: ('A' for Active; 'I' for Inactive)
REMARK    1  A    between atoms: _1  and  _3
REMARK    2  A    between atoms: _3  and  _4
REMARK    3  A    between atoms: _6  and  _8
REMARK    4  A    between atoms: _8  and  _9
REMARK    5  A    between atoms: _8  and  _11
REMARK    6  A    between atoms: _11  and  _12
REMARK    7  A    between atoms: _15  and  _17
REMARK    8  A    between atoms: _17  and  _18
REMARK    9  A    between atoms: _21  and  _23
REMARK   10  A    between atoms: _23  and  _24
REMARK   11  A    between atoms: _23  and  _26
REMARK   12  A    between atoms: _26  and  _27
REMARK   13  A    between atoms: _37  and  _39
REMARK   14  A    between atoms: _39  and  _40
REMARK   15  A    between atoms: _39  and  _42
REMARK   16  A    between atoms: _42  and  _43
REMARK   17  A    between atoms: _45  and  _47
REMARK   18  A    between atoms: _47  and  _48
REMARK   19  A    between atoms: _47  and  _50
REMARK   20  A    between atoms: _50  and  _51
REMARK   21  A    between atoms: _56  and  _57
REMARK   22  A    between atoms: _59  and  _61
REMARK   23  A    between atoms: _61  and  _62
REMARK   24  A    between atoms: _61  and  _64
REMARK   25  A    between atoms: _64  and  _65
REMARK   26  A    between atoms: _70  and  _71
REMARK   27  A    between atoms: _73  and  _75
REMARK   28  A    between atoms: _75  and  _76
REMARK   29  A    between atoms: _75  and  _78
REMARK   30  A    between atoms: _78  and  _79
REMARK   31  A    between atoms: _82  and  _84
REMARK   32  A    between atoms: _84  and  _85
REMARK   33  A    between atoms: _87  and  _89
REMARK   34  A    between atoms: _89  and  _90
REMARK   35  A    between atoms: _89  and  _92
REMARK   36  A    between atoms: _92  and  _93
REMARK   37  A    between atoms: _98  and  _99
REMARK   38  A    between atoms: _101  and  _103
REMARK   39  A    between atoms: _103  and  _104
REMARK   40  A    between atoms: _103  and  _106
REMARK   41  A    between atoms: _106  and  _107
REMARK   42  A    between atoms: _110  and  _112
REMARK   43  A    between atoms: _112  and  _113
REMARK   44  A    between atoms: _112  and  _115
REMARK   45  A    between atoms: _115  and  _116
REMARK   46  A    between atoms: _116  and  _117
REMARK   47  A    between atoms: _117  and  _118
REMARK   48  A    between atoms: _127  and  _129
REMARK   49  A    between atoms: _129  and  _130
REMARK   50  A    between atoms: _129  and  _132
REMARK   51  A    between atoms: _132  and  _133
REMARK   52  A    between atoms: _136  and  _138
REMARK   53  A    between atoms: _138  and  _139
REMARK   54  A    between atoms: _138  and  _141
REMARK   55  A    between atoms: _141  and  _142
REMARK   56  A    between atoms: _145  and  _147
REMARK   57  A    between atoms: _147  and  _148
REMARK   58  A    between atoms: _147  and  _150
REMARK   59  A    between atoms: _150  and  _151
REMARK   60  A    between atoms: _151  and  _152
REMARK   61  A    between atoms: _157  and  _159
REMARK   62  A    between atoms: _159  and  _160
REMARK   63  A    between atoms: _159  and  _162
REMARK   64  A    between atoms: _162  and  _163
REMARK   65  A    between atoms: _168  and  _170
REMARK   66  A    between atoms: _170  and  _171
REMARK   67  A    between atoms: _174  and  _176
REMARK   68  A    between atoms: _176  and  _177
REMARK   69  A    between atoms: _179  and  _181
REMARK   70  A    between atoms: _181  and  _182
REMARK   71  A    between atoms: _181  and  _184
REMARK   72  A    between atoms: _184  and  _185
REMARK   73  A    between atoms: _188  and  _190
REMARK   74  A    between atoms: _190  and  _191
REMARK   75  A    between atoms: _190  and  _193
REMARK   76  A    between atoms: _193  and  _194
REMARK   77  A    between atoms: _194  and  _195
REMARK   78  A    between atoms: _195  and  _196
REMARK   79  A    between atoms: _205  and  _207
REMARK   80  A    between atoms: _207  and  _208
REMARK   81  A    between atoms: _207  and  _210
REMARK   82  A    between atoms: _213  and  _215
REMARK   83  A    between atoms: _215  and  _216
REMARK   84  A    between atoms: _215  and  _218
REMARK   85  A    between atoms: _218  and  _219
REMARK   86  A    between atoms: _224  and  _225
REMARK   87  A    between atoms: _227  and  _229
REMARK   88  A    between atoms: _229  and  _230
REMARK   89  A    between atoms: _229  and  _232
REMARK   90  A    between atoms: _232  and  _233
REMARK   91  A    between atoms: _235  and  _237
REMARK   92  A    between atoms: _237  and  _238
REMARK   93  A    between atoms: _237  and  _240
REMARK   94  A    between atoms: _240  and  _241
REMARK   95  A    between atoms: _246  and  _248
REMARK   96  A    between atoms: _248  and  _249
REMARK   97  A    between atoms: _248  and  _251
REMARK   98  A    between atoms: _251  and  _252
REMARK   99  A    between atoms: _252  and  _253
REMARK  100  A    between atoms: _256  and  _258
REMARK  101  A    between atoms: _258  and  _259
REMARK  102  A    between atoms: _258  and  _261
REMARK  103  A    between atoms: _261  and  _262
REMARK  104  A    between atoms: _267  and  _268
REMARK  105  A    between atoms: _270  and  _272
REMARK  106  A    between atoms: _272  and  _273
REMARK  107  A    between atoms: _276  and  _278
REMARK  108  A    between atoms: _278  and  _279
REMARK  109  A    between atoms: _278  and  _281
REMARK  110  A    between atoms: _281  and  _282
REMARK  111  A    between atoms: _286  and  _287
REMARK  112  A    between atoms: _292  and  _294
REMARK  113  A    between atoms: _294  and  _295
REMARK  114  A    between atoms: _294  and  _297
REMARK  115  A    between atoms: _297  and  _298
REMARK  116  A    between atoms: _301  and  _303
REMARK  117  A    between atoms: _303  and  _304
REMARK  118  A    between atoms: _303  and  _306
REMARK  119  A    between atoms: _306  and  _307
REMARK  120  A    between atoms: _307  and  _308
REMARK  121  A    between atoms: _313  and  _315
REMARK  122  A    between atoms: _315  and  _316
REMARK  123  A    between atoms: _315  and  _318
REMARK  124  A    between atoms: _318  and  _319
REMARK  125  A    between atoms: _322  and  _324
REMARK  126  A    between atoms: _324  and  _325
REMARK  127  A    between atoms: _324  and  _327
REMARK  128  A    between atoms: _327  and  _328
REMARK  129  A    between atoms: _331  and  _333
REMARK  130  A    between atoms: _333  and  _334
REMARK  131  A    between atoms: _333  and  _336
REMARK  132  A    between atoms: _336  and  _337
REMARK  133  A    between atoms: _343  and  _345
REMARK  134  A    between atoms: _345  and  _346
REMARK  135  A    between atoms: _348  and  _350
REMARK  136  A    between atoms: _350  and  _351
REMARK  137  A    between atoms: _350  and  _353
REMARK  138  A    between atoms: _353  and  _354
REMARK  139  A    between atoms: _357  and  _359
REMARK  140  A    between atoms: _359  and  _360
REMARK  141  A    between atoms: _363  and  _365
REMARK  142  A    between atoms: _365  and  _366
REMARK  143  A    between atoms: _365  and  _368
REMARK  144  A    between atoms: _368  and  _369
REMARK  145  A    between atoms: _379  and  _381
REMARK  146  A    between atoms: _381  and  _382
REMARK  147  A    between atoms: _381  and  _384
REMARK  148  A    between atoms: _384  and  _385
REMARK  149  A    between atoms: _387  and  _389
REMARK  150  A    between atoms: _389  and  _390
REMARK  151  A    between atoms: _389  and  _392
REMARK  152  A    between atoms: _392  and  _393
REMARK  153  A    between atoms: _398  and  _399
REMARK  154  A    between atoms: _401  and  _403
REMARK  155  A    between atoms: _403  and  _404
REMARK  156  A    between atoms: _403  and  _406
REMARK  157  A    between atoms: _406  and  _407
REMARK  158  A    between atoms: _412  and  _413
REMARK  159  A    between atoms: _415  and  _417
REMARK  160  A    between atoms: _417  and  _418
REMARK  161  A    between atoms: _417  and  _420
REMARK  162  A    between atoms: _420  and  _421
REMARK  163  A    between atoms: _424  and  _426
REMARK  164  A    between atoms: _426  and  _427
REMARK  165  A    between atoms: _429  and  _431
REMARK  166  A    between atoms: _431  and  _432
REMARK  167  A    between atoms: _431  and  _434
REMARK  168  A    between atoms: _434  and  _435
REMARK  169  A    between atoms: _440  and  _441
REMARK  170  A    between atoms: _443  and  _445
REMARK  171  A    between atoms: _445  and  _446
REMARK  172  A    between atoms: _445  and  _448
REMARK  173  A    between atoms: _448  and  _449
REMARK  174  A    between atoms: _452  and  _454
REMARK  175  A    between atoms: _454  and  _455
REMARK  176  A    between atoms: _454  and  _457
REMARK  177  A    between atoms: _457  and  _458
REMARK  178  A    between atoms: _458  and  _459
REMARK  179  A    between atoms: _459  and  _460
REMARK  180  A    between atoms: _469  and  _471
REMARK  181  A    between atoms: _471  and  _472
REMARK  182  A    between atoms: _471  and  _474
REMARK  183  A    between atoms: _474  and  _475
REMARK  184  A    between atoms: _478  and  _480
REMARK  185  A    between atoms: _480  and  _481
REMARK  186  A    between atoms: _480  and  _483
REMARK  187  A    between atoms: _483  and  _484
REMARK  188  A    between atoms: _487  and  _489
REMARK  189  A    between atoms: _489  and  _490
REMARK  190  A    between atoms: _489  and  _492
REMARK  191  A    between atoms: _492  and  _493
REMARK  192  A    between atoms: _496  and  _498
REMARK  193  A    between atoms: _498  and  _499
REMARK  194  A    between atoms: _498  and  _501
REMARK  195  A    between atoms: _501  and  _502
REMARK  196  A    between atoms: _505  and  _507
REMARK  197  A    between atoms: _507  and  _508
REMARK  198  A    between atoms: _507  and  _510
REMARK  199  A    between atoms: _510  and  _511
REMARK  200  A    between atoms: _511  and  _512
REMARK  201  A    between atoms: _517  and  _519
REMARK  202  A    between atoms: _519  and  _520
REMARK  203  A    between atoms: _519  and  _522
REMARK  204  A    between atoms: _522  and  _523
REMARK  205  A    between atoms: _528  and  _530
REMARK  206  A    between atoms: _530  and  _531
REMARK  207  A    between atoms: _534  and  _536
REMARK  208  A    between atoms: _536  and  _537
REMARK  209  A    between atoms: _536  and  _539
REMARK  210  A    between atoms: _539  and  _540
REMARK  211  A    between atoms: _543  and  _545
REMARK  212  A    between atoms: _545  and  _546
REMARK  213  A    between atoms: _545  and  _548
REMARK  214  A    between atoms: _548  and  _549
REMARK  215  A    between atoms: _549  and  _550
REMARK  216  A    between atoms: _550  and  _551
REMARK  217  A    between atoms: _560  and  _562
REMARK  218  A    between atoms: _562  and  _563
REMARK  219  A    between atoms: _562  and  _565
REMARK  220  A    between atoms: _568  and  _570
REMARK  221  A    between atoms: _570  and  _571
REMARK  222  A    between atoms: _570  and  _573
REMARK  223  A    between atoms: _573  and  _574
REMARK  224  A    between atoms: _579  and  _580
REMARK  225  A    between atoms: _582  and  _584
REMARK  226  A    between atoms: _584  and  _585
REMARK  227  A    between atoms: _584  and  _587
REMARK  228  A    between atoms: _587  and  _588
REMARK  229  A    between atoms: _590  and  _592
REMARK  230  A    between atoms: _592  and  _593
REMARK  231  A    between atoms: _592  and  _595
REMARK  232  A    between atoms: _595  and  _596
REMARK  233  A    between atoms: _601  and  _603
REMARK  234  A    between atoms: _603  and  _604
REMARK  235  A    between atoms: _603  and  _606
REMARK  236  A    between atoms: _606  and  _607
REMARK  237  A    between atoms: _609  and  _611
REMARK  238  A    between atoms: _611  and  _612
REMARK  239  A    between atoms: _611  and  _614
REMARK  240  A    between atoms: _614  and  _615
REMARK  241  A    between atoms: _615  and  _616
REMARK  242  A    between atoms: _619  and  _621
REMARK  243  A    between atoms: _621  and  _622
REMARK  244  A    between atoms: _621  and  _624
REMARK  245  A    between atoms: _624  and  _625
REMARK  246  A    between atoms: _630  and  _631
REMARK  247  A    between atoms: _633  and  _635
REMARK  248  A    between atoms: _635  and  _636
REMARK  249  A    between atoms: _639  and  _641
REMARK  250  A    between atoms: _641  and  _642
REMARK  251  A    between atoms: _641  and  _644
REMARK  252  A    between atoms: _644  and  _645
REMARK  253  A    between atoms: _649  and  _650
REMARK  254  A    between atoms: _655  and  _657
REMARK  255  A    between atoms: _657  and  _658
REMARK  256  A    between atoms: _657  and  _660
REMARK  257  A    between atoms: _660  and  _661
REMARK  258  A    between atoms: _664  and  _666
REMARK  259  A    between atoms: _666  and  _667
REMARK  260  A    between atoms: _666  and  _669
REMARK  261  A    between atoms: _669  and  _670
REMARK  262  A    between atoms: _670  and  _671
REMARK  263  A    between atoms: _676  and  _678
REMARK  264  A    between atoms: _678  and  _679
REMARK  265  A    between atoms: _678  and  _681
REMARK  266  A    between atoms: _681  and  _682
REMARK  267  A    between atoms: _685  and  _687
REMARK  268  A    between atoms: _687  and  _688
REMARK  269  A    between atoms: _687  and  _690
REMARK  270  A    between atoms: _690  and  _691
REMARK                            x       y       z     vdW  Elec       q    Type
REMARK                         _______ _______ _______ _____ _____    ______ ____
ROOT
ATOM      1  C   ALA A   2      51.019  39.455   8.914  0.00  0.00    +0.241 C 
ATOM      2  O   ALA A   2      50.835  39.985  10.075  0.00  0.00    -0.273 OA
ATOM      3  N   GLY A   3      52.223  39.333   8.369  0.00  0.00    -0.295 N 
ATOM      4  H   GLY A   3      52.327  38.852   7.453  0.00  0.00    +0.150 HD
ENDROOT
BRANCH   1   5
ATOM      5  CA  ALA A   2      49.848  38.913   8.042  0.00  0.00    +0.149 C 
ATOM      6  CB  ALA A   2      48.658  38.682   8.908  0.00  0.00    +0.031 C 
BRANCH   5   9
ATOM      7  C   HIS A   1      50.456  36.509   7.872  0.00  0.00    +0.239 C 
ATOM      8  O   HIS A   1      50.841  36.433   9.054  0.00  0.00    -0.274 OA
ATOM      9  N   ALA A   2      50.133  37.680   7.284  0.00  0.00    -0.297 N 
ATOM     10  H   ALA A   2      50.083  37.715   6.246  0.00  0.00    +0.150 HD
BRANCH   7  11
ATOM     11  CA  HIS A   1      50.502  35.278   6.956  0.00  0.00    +0.151 C 
BRANCH  11  12
ATOM     12  N   HIS A   1      51.885  34.781   6.935  0.00  0.00    -0.238 NA
ATOM     13  H   HIS A   1      52.478  34.902   7.781  0.00  0.00    +0.142 HD
ENDBRANCH  11  12
BRANCH  11  14
ATOM     14  CB  HIS A   1      49.529  34.175   7.383  0.00  0.00    +0.074 C 
BRANCH  14  15
ATOM     15  CG  HIS A   1      49.443  33.040   6.394  0.00  0.00    +0.082 A 
ATOM     16  ND1 HIS A   1      50.113  31.842   6.560  0.00  0.00    -0.227 NA
ATOM     17  CE1 HIS A   1      49.878  31.050   5.526  0.00  0.00    +0.199 A 
ATOM     18  NE2 HIS A   1      49.088  31.695   4.684  0.00  0.00    -0.221 NA
ATOM     19  CD2 HIS A   1      48.809  32.943   5.197  0.00  0.00    +0.115 A 
ENDBRANCH  14  15
ENDBRANCH  11  14
ENDBRANCH   7  11
ENDBRANCH   5   9
ENDBRANCH   1   5
BRANCH   3  20
ATOM     20  CA  GLY A   3      53.388  39.861   9.036  0.00  0.00    +0.176 C 
BRANCH  20  21
ATOM     21  C   GLY A   3      54.043  38.957  10.035  0.00  0.00    +0.243 C 
ATOM     22  O   GLY A   3      55.072  39.329  10.694  0.00  0.00    -0.273 OA
ATOM     23  N   ILE A   4      53.437  37.774  10.200  0.00  0.00    -0.298 N 
ATOM     24  H   ILE A   4      52.525  37.604   9.729  0.00  0.00    +0.150 HD
BRANCH  23  25
ATOM     25  CA  ILE A   4      54.010  36.731  11.009  0.00  0.00    +0.137 C 
BRANCH  25  26
ATOM     26  CB  ILE A   4      52.946  35.967  11.819  0.00  0.00    +0.026 C 
ATOM     27  CG2 ILE A   4      53.577  34.798  12.524  0.00  0.00    +0.002 C 
BRANCH  26  28
ATOM     28  CG1 ILE A   4      52.272  36.917  12.845  0.00  0.00    +0.002 C 
ATOM     29  CD1 ILE A   4      53.230  37.525  13.864  0.00  0.00    +0.000 C 
ENDBRANCH  26  28
ENDBRANCH  25  26
BRANCH  25  30
ATOM     30  C   ILE A   4      54.712  35.850   9.994  0.00  0.00    +0.227 C 
ATOM     31  O   ILE A   4      54.079  35.190   9.173  0.00  0.00    -0.286 OA
ENDBRANCH  25  30
ENDBRANCH  23  25
ENDBRANCH  20  21
ENDBRANCH   3  20
TORSDOF 12
REMARK  Name = ../refined-set-2016/4loi/4loi_pocket.pdb
REMARK  270 active torsions:
REMARK  status: ('A' for Active; 'I' for Inactive)
REMARK    1  A    between atoms: _1  and  _3
REMARK    2  A    between atoms: _3  and  _4
REMARK    3  A    between atoms: _6  and  _8
REMARK    4  A    between atoms: _8  and  _9
REMARK    5  A    between atoms: _8  and  _11
REMARK    6  A    between atoms: _11  and  _12
REMARK    7  A    between atoms: _15  and  _17
REMARK    8  A    between atoms: _17  and  _18
REMARK    9  A    between atoms: _21  and  _23
REMARK   10  A    between atoms: _23  and  _24
REMARK   11  A    between atoms: _23  and  _26
REMARK   12  A    between atoms: _26  and  _27
REMARK   13  A    between atoms: _37  and  _39
REMARK   14  A    between atoms: _39  and  _40
REMARK   15  A    between atoms: _39  and  _42
REMARK   16  A    between atoms: _42  and  _43
REMARK   17  A    between atoms: _45  and  _47
REMARK   18  A    between atoms: _47  and  _48
REMARK   19  A    between atoms: _47  and  _50
REMARK   20  A    between atoms: _50  and  _51
REMARK   21  A    between atoms: _56  and  _57
REMARK   22  A    between atoms: _59  and  _61
REMARK   23  A    between atoms: _61  and  _62
REMARK   24  A    between atoms: _61  and  _64
REMARK   25  A    between atoms: _64  and  _65
REMARK   26  A    between atoms: _70  and  _71
REMARK   27  A    between atoms: _73  and  _75
REMARK   28  A    between atoms: _75  and  _76
REMARK   29  A    between atoms: _75  and  _78
REMARK   30  A    between atoms: _78  and  _79
REMARK   31  A    between atoms: _82  and  _84
REMARK   32  A    between atoms: _84  and  _85
REMARK   33  A    between atoms: _87  and  _89
REMARK   34  A    between atoms: _89  and  _90
REMARK   35  A    between atoms: _89  and  _92
REMARK   36  A    between atoms: _92  and  _93
REMARK   37  A    between atoms: _98  and  _99
REMARK   38  A    between atoms: _101  and  _103
REMARK   39  A    between atoms: _103  and  _104
REMARK   40  A    between atoms: _103  and  _106
REMARK   41  A    between atoms: _106  and  _107
REMARK   42  A    between atoms: _110  and  _112
REMARK   43  A    between atoms: _112  and  _113
REMARK   44  A    between atoms: _112  and  _115
REMARK   45  A    between atoms: _115  and  _116
REMARK   46  A    between atoms: _116  and  _117
REMARK   47  A    between atoms: _117  and  _118
REMARK   48  A    between atoms: _127  and  _129
REMARK   49  A    between atoms: _129  and  _130
REMARK   50  A    between atoms: _129  and  _132
REMARK   51  A    between atoms: _132  and  _133
REMARK   52  A    between atoms: _136  and  _138
REMARK   53  A    between atoms: _138  and  _139
REMARK   54  A    between atoms: _138  and  _141
REMARK   55  A    between atoms: _141  and  _142
REMARK   56  A    between atoms: _145  and  _147
REMARK   57  A    between atoms: _147  and  _148
REMARK   58  A    between atoms: _147  and  _150
REMARK   59  A    between atoms: _150  and  _151
REMARK   60  A    between atoms: _151  and  _152
REMARK   61  A    between atoms: _157  and  _159
REMARK   62  A    between atoms: _159  and  _160
REMARK   63  A    between atoms: _159  and  _162
REMARK   64  A    between atoms: _162  and  _163
REMARK   65  A    between atoms: _168  and  _170
REMARK   66  A    between atoms: _170  and  _171
REMARK   67  A    between atoms: _174  and  _176
REMARK   68  A    between atoms: _176  and  _177
REMARK   69  A    between atoms: _179  and  _181
REMARK   70  A    between atoms: _181  and  _182
REMARK   71  A    between atoms: _181  and  _184
REMARK   72  A    between atoms: _184  and  _185
REMARK   73  A    between atoms: _188  and  _190
REMARK   74  A    between atoms: _190  and  _191
REMARK   75  A    between atoms: _190  and  _193
REMARK   76  A    between atoms: _193  and  _194
REMARK   77  A    between atoms: _194  and  _195
REMARK   78  A    between atoms: _195  and  _196
REMARK   79  A    between atoms: _205  and  _207
REMARK   80  A    between atoms: _207  and  _208
REMARK   81  A    between atoms: _207  and  _210
REMARK   82  A    between atoms: _213  and  _215
REMARK   83  A    between atoms: _215  and  _216
REMARK   84  A    between atoms: _215  and  _218
REMARK   85  A    between atoms: _218  and  _219
REMARK   86  A    between atoms: _224  and  _225
REMARK   87  A    between atoms: _227  and  _229
REMARK   88  A    between atoms: _229  and  _230
REMARK   89  A    between atoms: _229  and  _232
REMARK   90  A    between atoms: _232  and  _233
REMARK   91  A    between atoms: _235  and  _237
REMARK   92  A    between atoms: _237  and  _238
REMARK   93  A    between atoms: _237  and  _240
REMARK   94  A    between atoms: _240  and  _241
REMARK   95  A    between atoms: _246  and  _248
REMARK   96  A    between atoms: _248  and  _249
REMARK   97  A    between atoms: _248  and  _251
REMARK   98  A    between atoms: _251  and  _252
REMARK   99  A    between atoms: _252  and  _253
REMARK  100  A    between atoms: _256  and  _258
REMARK  101  A    between atoms: _258  and  _259
REMARK  102  A    between atoms: _258  and  _261
REMARK  103  A    between atoms: _261  and  _262
REMARK  104  A    between atoms: _267  and  _268
REMARK  105  A    between atoms: _270  and  _272
REMARK  106  A    between atoms: _272  and  _273
REMARK  107  A    between atoms: _276  and  _278
REMARK  108  A    between atoms: _278  and  _279
REMARK  109  A    between atoms: _278  and  _281
REMARK  110  A    between atoms: _281  and  _282
REMARK  111  A    between atoms: _286  and  _287
REMARK  112  A    between atoms: _292  and  _294
REMARK  113  A    between atoms: _294  and  _295
REMARK  114  A    between atoms: _294  and  _297
REMARK  115  A    between atoms: _297  and  _298
REMARK  116  A    between atoms: _301  and  _303
REMARK  117  A    between atoms: _303  and  _304
REMARK  118  A    between atoms: _303  and  _306
REMARK  119  A    between atoms: _306  and  _307
REMARK  120  A    between atoms: _307  and  _308
REMARK  121  A    between atoms: _313  and  _315
REMARK  122  A    between atoms: _315  and  _316
REMARK  123  A    between atoms: _315  and  _318
REMARK  124  A    between atoms: _318  and  _319
REMARK  125  A    between atoms: _322  and  _324
REMARK  126  A    between atoms: _324  and  _325
REMARK  127  A    between atoms: _324  and  _327
REMARK  128  A    between atoms: _327  and  _328
REMARK  129  A    between atoms: _331  and  _333
REMARK  130  A    between atoms: _333  and  _334
REMARK  131  A    between atoms: _333  and  _336
REMARK  132  A    between atoms: _336  and  _337
REMARK  133  A    between atoms: _343  and  _345
REMARK  134  A    between atoms: _345  and  _346
REMARK  135  A    between atoms: _348  and  _350
REMARK  136  A    between atoms: _350  and  _351
REMARK  137  A    between atoms: _350  and  _353
REMARK  138  A    between atoms: _353  and  _354
REMARK  139  A    between atoms: _357  and  _359
REMARK  140  A    between atoms: _359  and  _360
REMARK  141  A    between atoms: _363  and  _365
REMARK  142  A    between atoms: _365  and  _366
REMARK  143  A    between atoms: _365  and  _368
REMARK  144  A    between atoms: _368  and  _369
REMARK  145  A    between atoms: _379  and  _381
REMARK  146  A    between atoms: _381  and  _382
REMARK  147  A    between atoms: _381  and  _384
REMARK  148  A    between atoms: _384  and  _385
REMARK  149  A    between atoms: _387  and  _389
REMARK  150  A    between atoms: _389  and  _390
REMARK  151  A    between atoms: _389  and  _392
REMARK  152  A    between atoms: _392  and  _393
REMARK  153  A    between atoms: _398  and  _399
REMARK  154  A    between atoms: _401  and  _403
REMARK  155  A    between atoms: _403  and  _404
REMARK  156  A    between atoms: _403  and  _406
REMARK  157  A    between atoms: _406  and  _407
REMARK  158  A    between atoms: _412  and  _413
REMARK  159  A    between atoms: _415  and  _417
REMARK  160  A    between atoms: _417  and  _418
REMARK  161  A    between atoms: _417  and  _420
REMARK  162  A    between atoms: _420  and  _421
REMARK  163  A    between atoms: _424  and  _426
REMARK  164  A    between atoms: _426  and  _427
REMARK  165  A    between atoms: _429  and  _431
REMARK  166  A    between atoms: _431  and  _432
REMARK  167  A    between atoms: _431  and  _434
REMARK  168  A    between atoms: _434  and  _435
REMARK  169  A    between atoms: _440  and  _441
REMARK  170  A    between atoms: _443  and  _445
REMARK  171  A    between atoms: _445  and  _446
REMARK  172  A    between atoms: _445  and  _448
REMARK  173  A    between atoms: _448  and  _449
REMARK  174  A    between atoms: _452  and  _454
REMARK  175  A    between atoms: _454  and  _455
REMARK  176  A    between atoms: _454  and  _457
REMARK  177  A    between atoms: _457  and  _458
REMARK  178  A    between atoms: _458  and  _459
REMARK  179  A    between atoms: _459  and  _460
REMARK  180  A    between atoms: _469  and  _471
REMARK  181  A    between atoms: _471  and  _472
REMARK  182  A    between atoms: _471  and  _474
REMARK  183  A    between atoms: _474  and  _475
REMARK  184  A    between atoms: _478  and  _480
REMARK  185  A    between atoms: _480  and  _481
REMARK  186  A    between atoms: _480  and  _483
REMARK  187  A    between atoms: _483  and  _484
REMARK  188  A    between atoms: _487  and  _489
REMARK  189  A    between atoms: _489  and  _490
REMARK  190  A    between atoms: _489  and  _492
REMARK  191  A    between atoms: _492  and  _493
REMARK  192  A    between atoms: _496  and  _498
REMARK  193  A    between atoms: _498  and  _499
REMARK  194  A    between atoms: _498  and  _501
REMARK  195  A    between atoms: _501  and  _502
REMARK  196  A    between atoms: _505  and  _507
REMARK  197  A    between atoms: _507  and  _508
REMARK  198  A    between atoms: _507  and  _510
REMARK  199  A    between atoms: _510  and  _511
REMARK  200  A    between atoms: _511  and  _512
REMARK  201  A    between atoms: _517  and  _519
REMARK  202  A    between atoms: _519  and  _520
REMARK  203  A    between atoms: _519  and  _522
REMARK  204  A    between atoms: _522  and  _523
REMARK  205  A    between atoms: _528  and  _530
REMARK  206  A    between atoms: _530  and  _531
REMARK  207  A    between atoms: _534  and  _536
REMARK  208  A    between atoms: _536  and  _537
REMARK  209  A    between atoms: _536  and  _539
REMARK  210  A    between atoms: _539  and  _540
REMARK  211  A    between atoms: _543  and  _545
REMARK  212  A    between atoms: _545  and  _546
REMARK  213  A    between atoms: _545  and  _548
REMARK  214  A    between atoms: _548  and  _549
REMARK  215  A    between atoms: _549  and  _550
REMARK  216  A    between atoms: _550  and  _551
REMARK  217  A    between atoms: _560  and  _562
REMARK  218  A    between atoms: _562  and  _563
REMARK  219  A    between atoms: _562  and  _565
REMARK  220  A    between atoms: _568  and  _570
REMARK  221  A    between atoms: _570  and  _571
REMARK  222  A    between atoms: _570  and  _573
REMARK  223  A    between atoms: _573  and  _574
REMARK  224  A    between atoms: _579  and  _580
REMARK  225  A    between atoms: _582  and  _584
REMARK  226  A    between atoms: _584  and  _585
REMARK  227  A    between atoms: _584  and  _587
REMARK  228  A    between atoms: _587  and  _588
REMARK  229  A    between atoms: _590  and  _592
REMARK  230  A    between atoms: _592  and  _593
REMARK  231  A    between atoms: _592  and  _595
REMARK  232  A    between atoms: _595  and  _596
REMARK  233  A    between atoms: _601  and  _603
REMARK  234  A    between atoms: _603  and  _604
REMARK  235  A    between atoms: _603  and  _606
REMARK  236  A    between atoms: _606  and  _607
REMARK  237  A    between atoms: _609  and  _611
REMARK  238  A    between atoms: _611  and  _612
REMARK  239  A    between atoms: _611  and  _614
REMARK  240  A    between atoms: _614  and  _615
REMARK  241  A    between atoms: _615  and  _616
REMARK  242  A    between atoms: _619  and  _621
REMARK  243  A    between atoms: _621  and  _622
REMARK  244  A    between atoms: _621  and  _624
REMARK  245  A    between atoms: _624  and  _625
REMARK  246  A    between atoms: _630  and  _631
REMARK  247  A    between atoms: _633  and  _635
REMARK  248  A    between atoms: _635  and  _636
REMARK  249  A    between atoms: _639  and  _641
REMARK  250  A    between atoms: _641  and  _642
REMARK  251  A    between atoms: _641  and  _644
REMARK  252  A    between atoms: _644  and  _645
REMARK  253  A    between atoms: _649  and  _650
REMARK  254  A    between atoms: _655  and  _657
REMARK  255  A    between atoms: _657  and  _658
REMARK  256  A    between atoms: _657  and  _660
REMARK  257  A    between atoms: _660  and  _661
REMARK  258  A    between atoms: _664  and  _666
REMARK  259  A    between atoms: _666  and  _667
REMARK  260  A    between atoms: _666  and  _669
REMARK  261  A    between atoms: _669  and  _670
REMARK  262  A    between atoms: _670  and  _671
REMARK  263  A    between atoms: _676  and  _678
REMARK  264  A    between atoms: _678  and  _679
REMARK  265  A    between atoms: _678  and  _681
REMARK  266  A    between atoms: _681  and  _682
REMARK  267  A    between atoms: _685  and  _687
REMARK  268  A    between atoms: _687  and  _688
REMARK  269  A    between atoms: _687  and  _690
REMARK  270  A    between atoms: _690  and  _691
REMARK                            x       y       z     vdW  Elec       q    Type
REMARK                         _______ _______ _______ _____ _____    ______ ____
ROOT
ATOM      1  CA  TYR A   3      49.876  25.216  11.641  0.00  0.00    +0.153 C 
ENDROOT
BRANCH   1   2
ATOM      2  C   TYR A   3      50.184  23.738  11.900  0.00  0.00    +0.241 C 
ATOM      3  N   SER A   4      49.735  23.218  13.027  0.00  0.00    -0.295 N 
ATOM      4  H   SER A   4      49.199  23.810  13.694  0.00  0.00    +0.150 HD
ATOM      5  O   TYR A   3      50.845  23.098  11.066  0.00  0.00    -0.273 OA
BRANCH   3   6
ATOM      6  CA  SER A   4      49.988  21.815  13.341  0.00  0.00    +0.178 C 
BRANCH   6   7
ATOM      7  C   SER A   4      48.719  21.023  13.592  0.00  0.00    +0.243 C 
ATOM      8  O   SER A   4      47.719  21.553  14.077  0.00  0.00    -0.273 OA
ATOM      9  N   ASN A   5      48.764  19.737  13.236  0.00  0.00    -0.298 N 
ATOM     10  H   ASN A   5      49.630  19.341  12.819  0.00  0.00    +0.150 HD
BRANCH   9  11
ATOM     11  CA  ASN A   5      47.573  18.876  13.438  0.00  0.00    +0.146 C 
BRANCH  11  12
ATOM     12  C   ASN A   5      48.059  17.580  14.064  0.00  0.00    +0.227 C 
ATOM     13  O   ASN A   5      49.211  17.182  13.857  0.00  0.00    -0.286 OA
ENDBRANCH  11  12
BRANCH  11  14
ATOM     14  CB  ASN A   5      46.902  18.602  12.145  0.00  0.00    +0.112 C 
BRANCH  14  15
ATOM     15  CG  ASN A   5      46.470  19.860  11.422  0.00  0.00    +0.222 C 
ATOM     16  ND2 ASN A   5      45.268  20.356  11.724  0.00  0.00    -0.329 N 
ATOM     17 HD21 ASN A   5      44.684  19.897  12.451  0.00  0.00    +0.145 HD
ATOM     18 HD22 ASN A   5      44.916  21.202  11.232  0.00  0.00    +0.145 HD
ATOM     19  OD1 ASN A   5      47.188  20.362  10.580  0.00  0.00    -0.275 OA
ENDBRANCH  14  15
ENDBRANCH  11  14
ENDBRANCH   9  11
ENDBRANCH   6   7
BRANCH   6  20
ATOM     20  CB  SER A   4      50.888  21.649  14.548  0.00  0.00    +0.166 C 
BRANCH  20  21
ATOM     21  OG  SER A   4      50.859  22.783  15.368  0.00  0.00    -0.380 OA
ATOM     22  H   SER A   4      51.167  23.570  14.852  0.00  0.00    +0.211 HD
ENDBRANCH  20  21
ENDBRANCH   6  20
ENDBRANCH   3   6
ENDBRANCH   1   2
BRANCH   1  25
ATOM     23  C   VAL A   2      51.599  26.848  12.225  0.00  0.00    +0.241 C 
ATOM     24  O   VAL A   2      50.941  27.316  13.208  0.00  0.00    -0.273 OA
ATOM     25  N   TYR A   3      51.157  25.901  11.405  0.00  0.00    -0.297 N 
ATOM     26  H   TYR A   3      51.729  25.638  10.577  0.00  0.00    +0.150 HD
BRANCH  23  27
ATOM     27  CA  VAL A   2      53.013  27.310  11.970  0.00  0.00    +0.148 C 
BRANCH  27  29
ATOM     28  C   ARG A   1      53.250  29.456  10.828  0.00  0.00    +0.238 C 
ATOM     29  N   VAL A   2      53.078  28.766  11.937  0.00  0.00    -0.297 N 
ATOM     30  H   VAL A   2      52.984  29.286  12.833  0.00  0.00    +0.150 HD
ATOM     31  O   ARG A   1      53.328  28.959   9.733  0.00  0.00    -0.274 OA
BRANCH  28  32
ATOM     32  CA  ARG A   1      53.385  30.967  11.012  0.00  0.00    +0.145 C 
BRANCH  32  33
ATOM     33  N   ARG A   1      54.476  31.450  10.210  0.00  0.00    -0.238 NA
ATOM     34  H   ARG A   1      54.303  32.162   9.472  0.00  0.00    +0.142 HD
ENDBRANCH  32  33
BRANCH  32  35
ATOM     35  CB  ARG A   1      52.109  31.656  10.622  0.00  0.00    +0.030 C 
BRANCH  35  36
ATOM     36  CG  ARG A   1      50.958  31.128  11.411  0.00  0.00    +0.045 C 
BRANCH  36  37
ATOM     37  CD  ARG A   1      50.025  32.165  11.925  0.00  0.00    +0.174 C 
BRANCH  37  38
ATOM     38  NE  ARG A   1      48.869  31.496  12.496  0.00  0.00    -0.265 N 
ATOM     39  HE  ARG A   1      48.964  30.501  12.783  0.00  0.00    +0.259 HD
ATOM     40  CZ  ARG A   1      47.711  32.087  12.667  0.00  0.00    +0.342 C 
ATOM     41  NH2 ARG A   1      46.679  31.423  13.187  0.00  0.00    -0.292 N 
ATOM     42 HH21 ARG A   1      46.787  30.426  13.462  0.00  0.00    +0.255 HD
ATOM     43 HH22 ARG A   1      45.765  31.902  13.318  0.00  0.00    +0.255 HD
ATOM     44  NH1 ARG A   1      47.549  33.333  12.252  0.00  0.00    -0.292 N 
ATOM     45 HH11 ARG A   1      46.634  33.810  12.383  0.00  0.00    +0.255 HD
ATOM     46 HH12 ARG A   1      48.336  33.835  11.795  0.00  0.00    +0.255 HD
ENDBRANCH  37  38
ENDBRANCH  36  37
ENDBRANCH  35  36
ENDBRANCH  32  35
ENDBRANCH  28  32
ENDBRANCH  27  29
BRANCH  27  47
ATOM     47  CB  VAL A   2      53.888  26.789  13.102  0.00  0.00    +0.027 C 
ATOM     48  CG2 VAL A   2      53.811  25.253  13.182  0.00  0.00    +0.002 C 
ATOM     49  CG1 VAL A   2      55.337  27.268  12.919  0.00  0.00    +0.002 C 
ENDBRANCH  27  47
ENDBRANCH  23  27
ENDBRANCH   1  25
BRANCH   1  50
ATOM     50  CB  TYR A   3      48.951  25.358  10.455  0.00  0.00    +0.055 C 
BRANCH  50  51
ATOM     51  CG  TYR A   3      48.644  26.794  10.118  0.00  0.00    -0.020 A 
ATOM     52  CD2 TYR A   3      47.513  27.426  10.625  0.00  0.00    -0.001 A 
ATOM     53  CE2 TYR A   3      47.238  28.750  10.329  0.00  0.00    +0.036 A 
ATOM     54  CZ  TYR A   3      48.109  29.483   9.541  0.00  0.00    +0.134 A 
ATOM     55  CE1 TYR A   3      49.251  28.885   9.033  0.00  0.00    +0.036 A 
ATOM     56  CD1 TYR A   3      49.516  27.556   9.312  0.00  0.00    -0.001 A 
BRANCH  54  57
ATOM     57  OH  TYR A   3      47.854  30.814   9.254  0.00  0.00    -0.506 OA
ATOM     58  HH  TYR A   3      46.990  30.888   8.777  0.00  0.00    +0.292 HD
ENDBRANCH  54  57
ENDBRANCH  50  51
ENDBRANCH   1  50
TORSDOF 22
REMARK  Name = ../refined-set-2016/4loi/4loi_pocket.pdb
REMARK  270 active torsions:
REMARK  status: ('A' for Active; 'I' for Inactive)
REMARK    1  A    between atoms: _1  and  _3
REMARK    2  A    between atoms: _3  and  _4
REMARK    3  A    between atoms: _6  and  _8
REMARK    4  A    between atoms: _8  and  _9
REMARK    5  A    between atoms: _8  and  _11
REMARK    6  A    between atoms: _11  and  _12
REMARK    7  A    between atoms: _15  and  _17
REMARK    8  A    between atoms: _17  and  _18
REMARK    9  A    between atoms: _21  and  _23
REMARK   10  A    between atoms: _23  and  _24
REMARK   11  A    between atoms: _23  and  _26
REMARK   12  A    between atoms: _26  and  _27
REMARK   13  A    between atoms: _37  and  _39
REMARK   14  A    between atoms: _39  and  _40
REMARK   15  A    between atoms: _39  and  _42
REMARK   16  A    between atoms: _42  and  _43
REMARK   17  A    between atoms: _45  and  _47
REMARK   18  A    between atoms: _47  and  _48
REMARK   19  A    between atoms: _47  and  _50
REMARK   20  A    between atoms: _50  and  _51
REMARK   21  A    between atoms: _56  and  _57
REMARK   22  A    between atoms: _59  and  _61
REMARK   23  A    between atoms: _61  and  _62
REMARK   24  A    between atoms: _61  and  _64
REMARK   25  A    between atoms: _64  and  _65
REMARK   26  A    between atoms: _70  and  _71
REMARK   27  A    between atoms: _73  and  _75
REMARK   28  A    between atoms: _75  and  _76
REMARK   29  A    between atoms: _75  and  _78
REMARK   30  A    between atoms: _78  and  _79
REMARK   31  A    between atoms: _82  and  _84
REMARK   32  A    between atoms: _84  and  _85
REMARK   33  A    between atoms: _87  and  _89
REMARK   34  A    between atoms: _89  and  _90
REMARK   35  A    between atoms: _89  and  _92
REMARK   36  A    between atoms: _92  and  _93
REMARK   37  A    between atoms: _98  and  _99
REMARK   38  A    between atoms: _101  and  _103
REMARK   39  A    between atoms: _103  and  _104
REMARK   40  A    between atoms: _103  and  _106
REMARK   41  A    between atoms: _106  and  _107
REMARK   42  A    between atoms: _110  and  _112
REMARK   43  A    between atoms: _112  and  _113
REMARK   44  A    between atoms: _112  and  _115
REMARK   45  A    between atoms: _115  and  _116
REMARK   46  A    between atoms: _116  and  _117
REMARK   47  A    between atoms: _117  and  _118
REMARK   48  A    between atoms: _127  and  _129
REMARK   49  A    between atoms: _129  and  _130
REMARK   50  A    between atoms: _129  and  _132
REMARK   51  A    between atoms: _132  and  _133
REMARK   52  A    between atoms: _136  and  _138
REMARK   53  A    between atoms: _138  and  _139
REMARK   54  A    between atoms: _138  and  _141
REMARK   55  A    between atoms: _141  and  _142
REMARK   56  A    between atoms: _145  and  _147
REMARK   57  A    between atoms: _147  and  _148
REMARK   58  A    between atoms: _147  and  _150
REMARK   59  A    between atoms: _150  and  _151
REMARK   60  A    between atoms: _151  and  _152
REMARK   61  A    between atoms: _157  and  _159
REMARK   62  A    between atoms: _159  and  _160
REMARK   63  A    between atoms: _159  and  _162
REMARK   64  A    between atoms: _162  and  _163
REMARK   65  A    between atoms: _168  and  _170
REMARK   66  A    between atoms: _170  and  _171
REMARK   67  A    between atoms: _174  and  _176
REMARK   68  A    between atoms: _176  and  _177
REMARK   69  A    between atoms: _179  and  _181
REMARK   70  A    between atoms: _181  and  _182
REMARK   71  A    between atoms: _181  and  _184
REMARK   72  A    between atoms: _184  and  _185
REMARK   73  A    between atoms: _188  and  _190
REMARK   74  A    between atoms: _190  and  _191
REMARK   75  A    between atoms: _190  and  _193
REMARK   76  A    between atoms: _193  and  _194
REMARK   77  A    between atoms: _194  and  _195
REMARK   78  A    between atoms: _195  and  _196
REMARK   79  A    between atoms: _205  and  _207
REMARK   80  A    between atoms: _207  and  _208
REMARK   81  A    between atoms: _207  and  _210
REMARK   82  A    between atoms: _213  and  _215
REMARK   83  A    between atoms: _215  and  _216
REMARK   84  A    between atoms: _215  and  _218
REMARK   85  A    between atoms: _218  and  _219
REMARK   86  A    between atoms: _224  and  _225
REMARK   87  A    between atoms: _227  and  _229
REMARK   88  A    between atoms: _229  and  _230
REMARK   89  A    between atoms: _229  and  _232
REMARK   90  A    between atoms: _232  and  _233
REMARK   91  A    between atoms: _235  and  _237
REMARK   92  A    between atoms: _237  and  _238
REMARK   93  A    between atoms: _237  and  _240
REMARK   94  A    between atoms: _240  and  _241
REMARK   95  A    between atoms: _246  and  _248
REMARK   96  A    between atoms: _248  and  _249
REMARK   97  A    between atoms: _248  and  _251
REMARK   98  A    between atoms: _251  and  _252
REMARK   99  A    between atoms: _252  and  _253
REMARK  100  A    between atoms: _256  and  _258
REMARK  101  A    between atoms: _258  and  _259
REMARK  102  A    between atoms: _258  and  _261
REMARK  103  A    between atoms: _261  and  _262
REMARK  104  A    between atoms: _267  and  _268
REMARK  105  A    between atoms: _270  and  _272
REMARK  106  A    between atoms: _272  and  _273
REMARK  107  A    between atoms: _276  and  _278
REMARK  108  A    between atoms: _278  and  _279
REMARK  109  A    between atoms: _278  and  _281
REMARK  110  A    between atoms: _281  and  _282
REMARK  111  A    between atoms: _286  and  _287
REMARK  112  A    between atoms: _292  and  _294
REMARK  113  A    between atoms: _294  and  _295
REMARK  114  A    between atoms: _294  and  _297
REMARK  115  A    between atoms: _297  and  _298
REMARK  116  A    between atoms: _301  and  _303
REMARK  117  A    between atoms: _303  and  _304
REMARK  118  A    between atoms: _303  and  _306
REMARK  119  A    between atoms: _306  and  _307
REMARK  120  A    between atoms: _307  and  _308
REMARK  121  A    between atoms: _313  and  _315
REMARK  122  A    between atoms: _315  and  _316
REMARK  123  A    between atoms: _315  and  _318
REMARK  124  A    between atoms: _318  and  _319
REMARK  125  A    between atoms: _322  and  _324
REMARK  126  A    between atoms: _324  and  _325
REMARK  127  A    between atoms: _324  and  _327
REMARK  128  A    between atoms: _327  and  _328
REMARK  129  A    between atoms: _331  and  _333
REMARK  130  A    between atoms: _333  and  _334
REMARK  131  A    between atoms: _333  and  _336
REMARK  132  A    between atoms: _336  and  _337
REMARK  133  A    between atoms: _343  and  _345
REMARK  134  A    between atoms: _345  and  _346
REMARK  135  A    between atoms: _348  and  _350
REMARK  136  A    between atoms: _350  and  _351
REMARK  137  A    between atoms: _350  and  _353
REMARK  138  A    between atoms: _353  and  _354
REMARK  139  A    between atoms: _357  and  _359
REMARK  140  A    between atoms: _359  and  _360
REMARK  141  A    between atoms: _363  and  _365
REMARK  142  A    between atoms: _365  and  _366
REMARK  143  A    between atoms: _365  and  _368
REMARK  144  A    between atoms: _368  and  _369
REMARK  145  A    between atoms: _379  and  _381
REMARK  146  A    between atoms: _381  and  _382
REMARK  147  A    between atoms: _381  and  _384
REMARK  148  A    between atoms: _384  and  _385
REMARK  149  A    between atoms: _387  and  _389
REMARK  150  A    between atoms: _389  and  _390
REMARK  151  A    between atoms: _389  and  _392
REMARK  152  A    between atoms: _392  and  _393
REMARK  153  A    between atoms: _398  and  _399
REMARK  154  A    between atoms: _401  and  _403
REMARK  155  A    between atoms: _403  and  _404
REMARK  156  A    between atoms: _403  and  _406
REMARK  157  A    between atoms: _406  and  _407
REMARK  158  A    between atoms: _412  and  _413
REMARK  159  A    between atoms: _415  and  _417
REMARK  160  A    between atoms: _417  and  _418
REMARK  161  A    between atoms: _417  and  _420
REMARK  162  A    between atoms: _420  and  _421
REMARK  163  A    between atoms: _424  and  _426
REMARK  164  A    between atoms: _426  and  _427
REMARK  165  A    between atoms: _429  and  _431
REMARK  166  A    between atoms: _431  and  _432
REMARK  167  A    between atoms: _431  and  _434
REMARK  168  A    between atoms: _434  and  _435
REMARK  169  A    between atoms: _440  and  _441
REMARK  170  A    between atoms: _443  and  _445
REMARK  171  A    between atoms: _445  and  _446
REMARK  172  A    between atoms: _445  and  _448
REMARK  173  A    between atoms: _448  and  _449
REMARK  174  A    between atoms: _452  and  _454
REMARK  175  A    between atoms: _454  and  _455
REMARK  176  A    between atoms: _454  and  _457
REMARK  177  A    between atoms: _457  and  _458
REMARK  178  A    between atoms: _458  and  _459
REMARK  179  A    between atoms: _459  and  _460
REMARK  180  A    between atoms: _469  and  _471
REMARK  181  A    between atoms: _471  and  _472
REMARK  182  A    between atoms: _471  and  _474
REMARK  183  A    between atoms: _474  and  _475
REMARK  184  A    between atoms: _478  and  _480
REMARK  185  A    between atoms: _480  and  _481
REMARK  186  A    between atoms: _480  and  _483
REMARK  187  A    between atoms: _483  and  _484
REMARK  188  A    between atoms: _487  and  _489
REMARK  189  A    between atoms: _489  and  _490
REMARK  190  A    between atoms: _489  and  _492
REMARK  191  A    between atoms: _492  and  _493
REMARK  192  A    between atoms: _496  and  _498
REMARK  193  A    between atoms: _498  and  _499
REMARK  194  A    between atoms: _498  and  _501
REMARK  195  A    between atoms: _501  and  _502
REMARK  196  A    between atoms: _505  and  _507
REMARK  197  A    between atoms: _507  and  _508
REMARK  198  A    between atoms: _507  and  _510
REMARK  199  A    between atoms: _510  and  _511
REMARK  200  A    between atoms: _511  and  _512
REMARK  201  A    between atoms: _517  and  _519
REMARK  202  A    between atoms: _519  and  _520
REMARK  203  A    between atoms: _519  and  _522
REMARK  204  A    between atoms: _522  and  _523
REMARK  205  A    between atoms: _528  and  _530
REMARK  206  A    between atoms: _530  and  _531
REMARK  207  A    between atoms: _534  and  _536
REMARK  208  A    between atoms: _536  and  _537
REMARK  209  A    between atoms: _536  and  _539
REMARK  210  A    between atoms: _539  and  _540
REMARK  211  A    between atoms: _543  and  _545
REMARK  212  A    between atoms: _545  and  _546
REMARK  213  A    between atoms: _545  and  _548
REMARK  214  A    between atoms: _548  and  _549
REMARK  215  A    between atoms: _549  and  _550
REMARK  216  A    between atoms: _550  and  _551
REMARK  217  A    between atoms: _560  and  _562
REMARK  218  A    between atoms: _562  and  _563
REMARK  219  A    between atoms: _562  and  _565
REMARK  220  A    between atoms: _568  and  _570
REMARK  221  A    between atoms: _570  and  _571
REMARK  222  A    between atoms: _570  and  _573
REMARK  223  A    between atoms: _573  and  _574
REMARK  224  A    between atoms: _579  and  _580
REMARK  225  A    between atoms: _582  and  _584
REMARK  226  A    between atoms: _584  and  _585
REMARK  227  A    between atoms: _584  and  _587
REMARK  228  A    between atoms: _587  and  _588
REMARK  229  A    between atoms: _590  and  _592
REMARK  230  A    between atoms: _592  and  _593
REMARK  231  A    between atoms: _592  and  _595
REMARK  232  A    between atoms: _595  and  _596
REMARK  233  A    between atoms: _601  and  _603
REMARK  234  A    between atoms: _603  and  _604
REMARK  235  A    between atoms: _603  and  _606
REMARK  236  A    between atoms: _606  and  _607
REMARK  237  A    between atoms: _609  and  _611
REMARK  238  A    between atoms: _611  and  _612
REMARK  239  A    between atoms: _611  and  _614
REMARK  240  A    between atoms: _614  and  _615
REMARK  241  A    between atoms: _615  and  _616
REMARK  242  A    between atoms: _619  and  _621
REMARK  243  A    between atoms: _621  and  _622
REMARK  244  A    between atoms: _621  and  _624
REMARK  245  A    between atoms: _624  and  _625
REMARK  246  A    between atoms: _630  and  _631
REMARK  247  A    between atoms: _633  and  _635
REMARK  248  A    between atoms: _635  and  _636
REMARK  249  A    between atoms: _639  and  _641
REMARK  250  A    between atoms: _641  and  _642
REMARK  251  A    between atoms: _641  and  _644
REMARK  252  A    between atoms: _644  and  _645
REMARK  253  A    between atoms: _649  and  _650
REMARK  254  A    between atoms: _655  and  _657
REMARK  255  A    between atoms: _657  and  _658
REMARK  256  A    between atoms: _657  and  _660
REMARK  257  A    between atoms: _660  and  _661
REMARK  258  A    between atoms: _664  and  _666
REMARK  259  A    between atoms: _666  and  _667
REMARK  260  A    between atoms: _666  and  _669
REMARK  261  A    between atoms: _669  and  _670
REMARK  262  A    between atoms: _670  and  _671
REMARK  263  A    between atoms: _676  and  _678
REMARK  264  A    between atoms: _678  and  _679
REMARK  265  A    between atoms: _678  and  _681
REMARK  266  A    between atoms: _681  and  _682
REMARK  267  A    between atoms: _685  and  _687
REMARK  268  A    between atoms: _687  and  _688
REMARK  269  A    between atoms: _687  and  _690
REMARK  270  A    between atoms: _690  and  _691
REMARK                            x       y       z     vdW  Elec       q    Type
REMARK                         _______ _______ _______ _____ _____    ______ ____
ROOT
ATOM      1  C   THR A   4      37.563  27.498  17.879  0.00  0.00    +0.246 C 
ATOM      2  O   THR A   4      37.495  27.965  19.004  0.00  0.00    -0.273 OA
ATOM      3  N   PRO A   5      36.772  27.924  16.894  0.00  0.00    -0.272 N 
ATOM      4  CA  PRO A   5      35.874  29.048  17.221  0.00  0.00    +0.152 C 
ATOM      5  CB  PRO A   5      35.098  29.258  15.917  0.00  0.00    +0.031 C 
ATOM      6  CG  PRO A   5      36.119  28.896  14.862  0.00  0.00    +0.024 C 
ATOM      7  CD  PRO A   5      36.763  27.659  15.444  0.00  0.00    +0.094 C 
ENDROOT
BRANCH   4   8
ATOM      8  C   PRO A   5      34.852  28.721  18.346  0.00  0.00    +0.241 C 
ATOM      9  O   PRO A   5      34.264  29.625  18.960  0.00  0.00    -0.273 OA
ATOM     10  N   LEU A   6      34.559  27.437  18.564  0.00  0.00    -0.297 N 
ATOM     11  H   LEU A   6      34.991  26.698  17.973  0.00  0.00    +0.150 HD
BRANCH  10  12
ATOM     12  CA  LEU A   6      33.639  27.071  19.623  0.00  0.00    +0.149 C 
BRANCH  12  13
ATOM     13  C   LEU A   6      34.196  27.405  21.013  0.00  0.00    +0.241 C 
ATOM     14  O   LEU A   6      33.439  27.758  21.902  0.00  0.00    -0.273 OA
ATOM     15  N   GLN A   7      35.512  27.400  21.162  0.00  0.00    -0.297 N 
ATOM     16  H   GLN A   7      36.113  26.986  20.421  0.00  0.00    +0.150 HD
BRANCH  15  17
ATOM     17  CA  GLN A   7      36.142  27.986  22.388  0.00  0.00    +0.149 C 
BRANCH  17  18
ATOM     18  C   GLN A   7      35.915  29.451  22.577  0.00  0.00    +0.241 C 
ATOM     19  O   GLN A   7      35.721  29.894  23.705  0.00  0.00    -0.273 OA
ATOM     20  N   THR A   8      35.892  30.233  21.511  0.00  0.00    -0.295 N 
ATOM     21  H   THR A   8      36.141  29.820  20.590  0.00  0.00    +0.150 HD
BRANCH  20  22
ATOM     22  CA  THR A   8      35.538  31.635  21.562  0.00  0.00    +0.176 C 
BRANCH  22  23
ATOM     23  C   THR A   8      34.078  31.834  22.025  0.00  0.00    +0.243 C 
ATOM     24  O   THR A   8      33.817  32.686  22.889  0.00  0.00    -0.273 OA
ATOM     25  N   LEU A   9      33.147  31.018  21.535  0.00  0.00    -0.298 N 
ATOM     26  H   LEU A   9      33.420  30.276  20.860  0.00  0.00    +0.150 HD
BRANCH  25  27
ATOM     27  CA  LEU A   9      31.772  31.149  21.926  0.00  0.00    +0.137 C 
BRANCH  27  28
ATOM     28  C   LEU A   9      31.662  30.821  23.398  0.00  0.00    +0.227 C 
ATOM     29  O   LEU A   9      30.906  31.503  24.135  0.00  0.00    -0.286 OA
ENDBRANCH  27  28
BRANCH  27  30
ATOM     30  CB  LEU A   9      30.837  30.282  21.092  0.00  0.00    +0.028 C 
BRANCH  30  31
ATOM     31  CG  LEU A   9      30.724  30.662  19.611  0.00  0.00    +0.002 C 
ATOM     32  CD2 LEU A   9      30.181  32.048  19.402  0.00  0.00    +0.000 C 
ATOM     33  CD1 LEU A   9      29.835  29.716  18.901  0.00  0.00    +0.000 C 
ENDBRANCH  30  31
ENDBRANCH  27  30
ENDBRANCH  25  27
ENDBRANCH  22  23
BRANCH  22  34
ATOM     34  CB  THR A   8      35.746  32.371  20.211  0.00  0.00    +0.137 C 
ATOM     35  CG2 THR A   8      35.142  33.747  20.230  0.00  0.00    +0.034 C 
BRANCH  34  36
ATOM     36  OG1 THR A   8      37.110  32.559  19.954  0.00  0.00    -0.382 OA
ATOM     37  HG1 THR A   8      37.220  33.029  19.090  0.00  0.00    +0.210 HD
ENDBRANCH  34  36
ENDBRANCH  22  34
ENDBRANCH  20  22
ENDBRANCH  17  18
BRANCH  17  38
ATOM     38  CB  GLN A   7      37.642  27.642  22.402  0.00  0.00    +0.039 C 
BRANCH  38  39
ATOM     39  CG  GLN A   7      38.421  28.163  23.606  0.00  0.00    +0.087 C 
BRANCH  39  40
ATOM     40  CD  GLN A   7      37.854  27.709  24.944  0.00  0.00    +0.219 C 
ATOM     41  NE2 GLN A   7      37.562  28.691  25.809  0.00  0.00    -0.329 N 
ATOM     42 HE21 GLN A   7      37.168  28.461  26.743  0.00  0.00    +0.145 HD
ATOM     43 HE22 GLN A   7      37.730  29.683  25.546  0.00  0.00    +0.145 HD
ATOM     44  OE1 GLN A   7      37.674  26.513  25.207  0.00  0.00    -0.275 OA
ENDBRANCH  39  40
ENDBRANCH  38  39
ENDBRANCH  17  38
ENDBRANCH  15  17
ENDBRANCH  12  13
BRANCH  12  45
ATOM     45  CB  LEU A   6      33.238  25.598  19.546  0.00  0.00    +0.029 C 
BRANCH  45  46
ATOM     46  CG  LEU A   6      32.539  25.189  18.287  0.00  0.00    +0.002 C 
ATOM     47  CD2 LEU A   6      32.304  23.698  18.424  0.00  0.00    +0.000 C 
ATOM     48  CD1 LEU A   6      31.211  25.904  18.048  0.00  0.00    +0.000 C 
ENDBRANCH  45  46
ENDBRANCH  12  45
ENDBRANCH  10  12
ENDBRANCH   4   8
BRANCH   1  49
ATOM     49  CA  THR A   4      38.526  26.332  17.647  0.00  0.00    +0.176 C 
BRANCH  49  52
ATOM     50  C   ALA A   3      36.964  24.623  16.898  0.00  0.00    +0.241 C 
ATOM     51  O   ALA A   3      36.229  24.878  17.850  0.00  0.00    -0.273 OA
ATOM     52  N   THR A   4      38.088  25.280  16.710  0.00  0.00    -0.295 N 
ATOM     53  H   THR A   4      38.679  25.053  15.885  0.00  0.00    +0.150 HD
BRANCH  50  54
ATOM     54  CA  ALA A   3      36.653  23.493  15.889  0.00  0.00    +0.149 C 
ATOM     55  CB  ALA A   3      35.288  23.680  15.296  0.00  0.00    +0.031 C 
BRANCH  54  58
ATOM     56  C   TYR A   2      37.885  21.738  17.022  0.00  0.00    +0.241 C 
ATOM     57  O   TYR A   2      39.004  22.242  16.789  0.00  0.00    -0.273 OA
ATOM     58  N   ALA A   3      36.740  22.234  16.566  0.00  0.00    -0.297 N 
ATOM     59  H   ALA A   3      35.869  21.684  16.707  0.00  0.00    +0.150 HD
BRANCH  56  60
ATOM     60  CA  TYR A   2      37.794  20.510  17.906  0.00  0.00    +0.153 C 
BRANCH  60  62
ATOM     61  C   GLU A   1      39.146  18.901  16.686  0.00  0.00    +0.238 C 
ATOM     62  N   TYR A   2      39.010  19.717  17.714  0.00  0.00    -0.297 N 
ATOM     63  H   TYR A   2      39.784  19.799  18.404  0.00  0.00    +0.150 HD
ATOM     64  O   GLU A   1      38.239  18.658  15.886  0.00  0.00    -0.274 OA
BRANCH  61  65
ATOM     65  CA  GLU A   1      40.537  18.260  16.515  0.00  0.00    +0.145 C 
BRANCH  65  66
ATOM     66  N   GLU A   1      40.456  17.078  15.646  0.00  0.00    -0.238 NA
ATOM     67  H   GLU A   1      39.612  16.926  15.058  0.00  0.00    +0.142 HD
ENDBRANCH  65  66
BRANCH  65  68
ATOM     68  CB  GLU A   1      41.500  19.301  15.934  0.00  0.00    +0.038 C 
BRANCH  68  69
ATOM     69  CG  GLU A   1      41.108  19.761  14.538  0.00  0.00    +0.116 C 
BRANCH  69  70
ATOM     70  CD  GLU A   1      42.244  20.519  13.843  0.00  0.00    +0.365 C 
ATOM     71  OE2 GLU A   1      43.368  19.931  13.770  0.00  0.00    -0.246 OA
ATOM     72  OE1 GLU A   1      42.039  21.699  13.412  0.00  0.00    -0.246 OA
ENDBRANCH  69  70
ENDBRANCH  68  69
ENDBRANCH  65  68
ENDBRANCH  61  65
ENDBRANCH  60  62
BRANCH  60  73
ATOM     73  CB  TYR A   2      37.721  20.973  19.348  0.00  0.00    +0.055 C 
BRANCH  73  74
ATOM     74  CG  TYR A   2      37.310  19.902  20.308  0.00  0.00    -0.020 A 
ATOM     75  CD2 TYR A   2      38.235  19.300  21.146  0.00  0.00    -0.001 A 
ATOM     76  CE2 TYR A   2      37.845  18.353  22.044  0.00  0.00    +0.036 A 
ATOM     77  CZ  TYR A   2      36.542  17.907  22.069  0.00  0.00    +0.134 A 
ATOM     78  CE1 TYR A   2      35.620  18.475  21.255  0.00  0.00    +0.036 A 
ATOM     79  CD1 TYR A   2      36.010  19.468  20.363  0.00  0.00    -0.001 A 
BRANCH  77  80
ATOM     80  OH  TYR A   2      36.189  16.936  22.960  0.00  0.00    -0.506 OA
ATOM     81  HH  TYR A   2      35.227  16.726  22.854  0.00  0.00    +0.292 HD
ENDBRANCH  77  80
ENDBRANCH  73  74
ENDBRANCH  60  73
ENDBRANCH  56  60
ENDBRANCH  54  58
ENDBRANCH  50  54
ENDBRANCH  49  52
BRANCH  49  82
ATOM     82  CB  THR A   4      39.908  26.878  17.238  0.00  0.00    +0.137 C 
ATOM     83  CG2 THR A   4      40.973  25.968  17.791  0.00  0.00    +0.034 C 
BRANCH  82  84
ATOM     84  OG1 THR A   4      39.968  26.937  15.816  0.00  0.00    -0.382 OA
ATOM     85  HG1 THR A   4      40.852  27.287  15.538  0.00  0.00    +0.210 HD
ENDBRANCH  82  84
ENDBRANCH  49  82
ENDBRANCH   1  49
TORSDOF 34
REMARK  Name = ../refined-set-2016/4loi/4loi_pocket.pdb
REMARK  270 active torsions:
REMARK  status: ('A' for Active; 'I' for Inactive)
REMARK    1  A    between atoms: _1  and  _3
REMARK    2  A    between atoms: _3  and  _4
REMARK    3  A    between atoms: _6  and  _8
REMARK    4  A    between atoms: _8  and  _9
REMARK    5  A    between atoms: _8  and  _11
REMARK    6  A    between atoms: _11  and  _12
REMARK    7  A    between atoms: _15  and  _17
REMARK    8  A    between atoms: _17  and  _18
REMARK    9  A    between atoms: _21  and  _23
REMARK   10  A    between atoms: _23  and  _24
REMARK   11  A    between atoms: _23  and  _26
REMARK   12  A    between atoms: _26  and  _27
REMARK   13  A    between atoms: _37  and  _39
REMARK   14  A    between atoms: _39  and  _40
REMARK   15  A    between atoms: _39  and  _42
REMARK   16  A    between atoms: _42  and  _43
REMARK   17  A    between atoms: _45  and  _47
REMARK   18  A    between atoms: _47  and  _48
REMARK   19  A    between atoms: _47  and  _50
REMARK   20  A    between atoms: _50  and  _51
REMARK   21  A    between atoms: _56  and  _57
REMARK   22  A    between atoms: _59  and  _61
REMARK   23  A    between atoms: _61  and  _62
REMARK   24  A    between atoms: _61  and  _64
REMARK   25  A    between atoms: _64  and  _65
REMARK   26  A    between atoms: _70  and  _71
REMARK   27  A    between atoms: _73  and  _75
REMARK   28  A    between atoms: _75  and  _76
REMARK   29  A    between atoms: _75  and  _78
REMARK   30  A    between atoms: _78  and  _79
REMARK   31  A    between atoms: _82  and  _84
REMARK   32  A    between atoms: _84  and  _85
REMARK   33  A    between atoms: _87  and  _89
REMARK   34  A    between atoms: _89  and  _90
REMARK   35  A    between atoms: _89  and  _92
REMARK   36  A    between atoms: _92  and  _93
REMARK   37  A    between atoms: _98  and  _99
REMARK   38  A    between atoms: _101  and  _103
REMARK   39  A    between atoms: _103  and  _104
REMARK   40  A    between atoms: _103  and  _106
REMARK   41  A    between atoms: _106  and  _107
REMARK   42  A    between atoms: _110  and  _112
REMARK   43  A    between atoms: _112  and  _113
REMARK   44  A    between atoms: _112  and  _115
REMARK   45  A    between atoms: _115  and  _116
REMARK   46  A    between atoms: _116  and  _117
REMARK   47  A    between atoms: _117  and  _118
REMARK   48  A    between atoms: _127  and  _129
REMARK   49  A    between atoms: _129  and  _130
REMARK   50  A    between atoms: _129  and  _132
REMARK   51  A    between atoms: _132  and  _133
REMARK   52  A    between atoms: _136  and  _138
REMARK   53  A    between atoms: _138  and  _139
REMARK   54  A    between atoms: _138  and  _141
REMARK   55  A    between atoms: _141  and  _142
REMARK   56  A    between atoms: _145  and  _147
REMARK   57  A    between atoms: _147  and  _148
REMARK   58  A    between atoms: _147  and  _150
REMARK   59  A    between atoms: _150  and  _151
REMARK   60  A    between atoms: _151  and  _152
REMARK   61  A    between atoms: _157  and  _159
REMARK   62  A    between atoms: _159  and  _160
REMARK   63  A    between atoms: _159  and  _162
REMARK   64  A    between atoms: _162  and  _163
REMARK   65  A    between atoms: _168  and  _170
REMARK   66  A    between atoms: _170  and  _171
REMARK   67  A    between atoms: _174  and  _176
REMARK   68  A    between atoms: _176  and  _177
REMARK   69  A    between atoms: _179  and  _181
REMARK   70  A    between atoms: _181  and  _182
REMARK   71  A    between atoms: _181  and  _184
REMARK   72  A    between atoms: _184  and  _185
REMARK   73  A    between atoms: _188  and  _190
REMARK   74  A    between atoms: _190  and  _191
REMARK   75  A    between atoms: _190  and  _193
REMARK   76  A    between atoms: _193  and  _194
REMARK   77  A    between atoms: _194  and  _195
REMARK   78  A    between atoms: _195  and  _196
REMARK   79  A    between atoms: _205  and  _207
REMARK   80  A    between atoms: _207  and  _208
REMARK   81  A    between atoms: _207  and  _210
REMARK   82  A    between atoms: _213  and  _215
REMARK   83  A    between atoms: _215  and  _216
REMARK   84  A    between atoms: _215  and  _218
REMARK   85  A    between atoms: _218  and  _219
REMARK   86  A    between atoms: _224  and  _225
REMARK   87  A    between atoms: _227  and  _229
REMARK   88  A    between atoms: _229  and  _230
REMARK   89  A    between atoms: _229  and  _232
REMARK   90  A    between atoms: _232  and  _233
REMARK   91  A    between atoms: _235  and  _237
REMARK   92  A    between atoms: _237  and  _238
REMARK   93  A    between atoms: _237  and  _240
REMARK   94  A    between atoms: _240  and  _241
REMARK   95  A    between atoms: _246  and  _248
REMARK   96  A    between atoms: _248  and  _249
REMARK   97  A    between atoms: _248  and  _251
REMARK   98  A    between atoms: _251  and  _252
REMARK   99  A    between atoms: _252  and  _253
REMARK  100  A    between atoms: _256  and  _258
REMARK  101  A    between atoms: _258  and  _259
REMARK  102  A    between atoms: _258  and  _261
REMARK  103  A    between atoms: _261  and  _262
REMARK  104  A    between atoms: _267  and  _268
REMARK  105  A    between atoms: _270  and  _272
REMARK  106  A    between atoms: _272  and  _273
REMARK  107  A    between atoms: _276  and  _278
REMARK  108  A    between atoms: _278  and  _279
REMARK  109  A    between atoms: _278  and  _281
REMARK  110  A    between atoms: _281  and  _282
REMARK  111  A    between atoms: _286  and  _287
REMARK  112  A    between atoms: _292  and  _294
REMARK  113  A    between atoms: _294  and  _295
REMARK  114  A    between atoms: _294  and  _297
REMARK  115  A    between atoms: _297  and  _298
REMARK  116  A    between atoms: _301  and  _303
REMARK  117  A    between atoms: _303  and  _304
REMARK  118  A    between atoms: _303  and  _306
REMARK  119  A    between atoms: _306  and  _307
REMARK  120  A    between atoms: _307  and  _308
REMARK  121  A    between atoms: _313  and  _315
REMARK  122  A    between atoms: _315  and  _316
REMARK  123  A    between atoms: _315  and  _318
REMARK  124  A    between atoms: _318  and  _319
REMARK  125  A    between atoms: _322  and  _324
REMARK  126  A    between atoms: _324  and  _325
REMARK  127  A    between atoms: _324  and  _327
REMARK  128  A    between atoms: _327  and  _328
REMARK  129  A    between atoms: _331  and  _333
REMARK  130  A    between atoms: _333  and  _334
REMARK  131  A    between atoms: _333  and  _336
REMARK  132  A    between atoms: _336  and  _337
REMARK  133  A    between atoms: _343  and  _345
REMARK  134  A    between atoms: _345  and  _346
REMARK  135  A    between atoms: _348  and  _350
REMARK  136  A    between atoms: _350  and  _351
REMARK  137  A    between atoms: _350  and  _353
REMARK  138  A    between atoms: _353  and  _354
REMARK  139  A    between atoms: _357  and  _359
REMARK  140  A    between atoms: _359  and  _360
REMARK  141  A    between atoms: _363  and  _365
REMARK  142  A    between atoms: _365  and  _366
REMARK  143  A    between atoms: _365  and  _368
REMARK  144  A    between atoms: _368  and  _369
REMARK  145  A    between atoms: _379  and  _381
REMARK  146  A    between atoms: _381  and  _382
REMARK  147  A    between atoms: _381  and  _384
REMARK  148  A    between atoms: _384  and  _385
REMARK  149  A    between atoms: _387  and  _389
REMARK  150  A    between atoms: _389  and  _390
REMARK  151  A    between atoms: _389  and  _392
REMARK  152  A    between atoms: _392  and  _393
REMARK  153  A    between atoms: _398  and  _399
REMARK  154  A    between atoms: _401  and  _403
REMARK  155  A    between atoms: _403  and  _404
REMARK  156  A    between atoms: _403  and  _406
REMARK  157  A    between atoms: _406  and  _407
REMARK  158  A    between atoms: _412  and  _413
REMARK  159  A    between atoms: _415  and  _417
REMARK  160  A    between atoms: _417  and  _418
REMARK  161  A    between atoms: _417  and  _420
REMARK  162  A    between atoms: _420  and  _421
REMARK  163  A    between atoms: _424  and  _426
REMARK  164  A    between atoms: _426  and  _427
REMARK  165  A    between atoms: _429  and  _431
REMARK  166  A    between atoms: _431  and  _432
REMARK  167  A    between atoms: _431  and  _434
REMARK  168  A    between atoms: _434  and  _435
REMARK  169  A    between atoms: _440  and  _441
REMARK  170  A    between atoms: _443  and  _445
REMARK  171  A    between atoms: _445  and  _446
REMARK  172  A    between atoms: _445  and  _448
REMARK  173  A    between atoms: _448  and  _449
REMARK  174  A    between atoms: _452  and  _454
REMARK  175  A    between atoms: _454  and  _455
REMARK  176  A    between atoms: _454  and  _457
REMARK  177  A    between atoms: _457  and  _458
REMARK  178  A    between atoms: _458  and  _459
REMARK  179  A    between atoms: _459  and  _460
REMARK  180  A    between atoms: _469  and  _471
REMARK  181  A    between atoms: _471  and  _472
REMARK  182  A    between atoms: _471  and  _474
REMARK  183  A    between atoms: _474  and  _475
REMARK  184  A    between atoms: _478  and  _480
REMARK  185  A    between atoms: _480  and  _481
REMARK  186  A    between atoms: _480  and  _483
REMARK  187  A    between atoms: _483  and  _484
REMARK  188  A    between atoms: _487  and  _489
REMARK  189  A    between atoms: _489  and  _490
REMARK  190  A    between atoms: _489  and  _492
REMARK  191  A    between atoms: _492  and  _493
REMARK  192  A    between atoms: _496  and  _498
REMARK  193  A    between atoms: _498  and  _499
REMARK  194  A    between atoms: _498  and  _501
REMARK  195  A    between atoms: _501  and  _502
REMARK  196  A    between atoms: _505  and  _507
REMARK  197  A    between atoms: _507  and  _508
REMARK  198  A    between atoms: _507  and  _510
REMARK  199  A    between atoms: _510  and  _511
REMARK  200  A    between atoms: _511  and  _512
REMARK  201  A    between atoms: _517  and  _519
REMARK  202  A    between atoms: _519  and  _520
REMARK  203  A    between atoms: _519  and  _522
REMARK  204  A    between atoms: _522  and  _523
REMARK  205  A    between atoms: _528  and  _530
REMARK  206  A    between atoms: _530  and  _531
REMARK  207  A    between atoms: _534  and  _536
REMARK  208  A    between atoms: _536  and  _537
REMARK  209  A    between atoms: _536  and  _539
REMARK  210  A    between atoms: _539  and  _540
REMARK  211  A    between atoms: _543  and  _545
REMARK  212  A    between atoms: _545  and  _546
REMARK  213  A    between atoms: _545  and  _548
REMARK  214  A    between atoms: _548  and  _549
REMARK  215  A    between atoms: _549  and  _550
REMARK  216  A    between atoms: _550  and  _551
REMARK  217  A    between atoms: _560  and  _562
REMARK  218  A    between atoms: _562  and  _563
REMARK  219  A    between atoms: _562  and  _565
REMARK  220  A    between atoms: _568  and  _570
REMARK  221  A    between atoms: _570  and  _571
REMARK  222  A    between atoms: _570  and  _573
REMARK  223  A    between atoms: _573  and  _574
REMARK  224  A    between atoms: _579  and  _580
REMARK  225  A    between atoms: _582  and  _584
REMARK  226  A    between atoms: _584  and  _585
REMARK  227  A    between atoms: _584  and  _587
REMARK  228  A    between atoms: _587  and  _588
REMARK  229  A    between atoms: _590  and  _592
REMARK  230  A    between atoms: _592  and  _593
REMARK  231  A    between atoms: _592  and  _595
REMARK  232  A    between atoms: _595  and  _596
REMARK  233  A    between atoms: _601  and  _603
REMARK  234  A    between atoms: _603  and  _604
REMARK  235  A    between atoms: _603  and  _606
REMARK  236  A    between atoms: _606  and  _607
REMARK  237  A    between atoms: _609  and  _611
REMARK  238  A    between atoms: _611  and  _612
REMARK  239  A    between atoms: _611  and  _614
REMARK  240  A    between atoms: _614  and  _615
REMARK  241  A    between atoms: _615  and  _616
REMARK  242  A    between atoms: _619  and  _621
REMARK  243  A    between atoms: _621  and  _622
REMARK  244  A    between atoms: _621  and  _624
REMARK  245  A    between atoms: _624  and  _625
REMARK  246  A    between atoms: _630  and  _631
REMARK  247  A    between atoms: _633  and  _635
REMARK  248  A    between atoms: _635  and  _636
REMARK  249  A    between atoms: _639  and  _641
REMARK  250  A    between atoms: _641  and  _642
REMARK  251  A    between atoms: _641  and  _644
REMARK  252  A    between atoms: _644  and  _645
REMARK  253  A    between atoms: _649  and  _650
REMARK  254  A    between atoms: _655  and  _657
REMARK  255  A    between atoms: _657  and  _658
REMARK  256  A    between atoms: _657  and  _660
REMARK  257  A    between atoms: _660  and  _661
REMARK  258  A    between atoms: _664  and  _666
REMARK  259  A    between atoms: _666  and  _667
REMARK  260  A    between atoms: _666  and  _669
REMARK  261  A    between atoms: _669  and  _670
REMARK  262  A    between atoms: _670  and  _671
REMARK  263  A    between atoms: _676  and  _678
REMARK  264  A    between atoms: _678  and  _679
REMARK  265  A    between atoms: _678  and  _681
REMARK  266  A    between atoms: _681  and  _682
REMARK  267  A    between atoms: _685  and  _687
REMARK  268  A    between atoms: _687  and  _688
REMARK  269  A    between atoms: _687  and  _690
REMARK  270  A    between atoms: _690  and  _691
REMARK                            x       y       z     vdW  Elec       q    Type
REMARK                         _______ _______ _______ _____ _____    ______ ____
ROOT
ATOM      1  CB  PHE A   1      29.355  28.562  14.367  0.00  0.00    +0.051 C 
ENDROOT
BRANCH   1   2
ATOM      2  CG  PHE A   1      30.717  28.100  14.010  0.00  0.00    -0.020 A 
ATOM      3  CD2 PHE A   1      31.098  26.787  14.161  0.00  0.00    -0.004 A 
ATOM      4  CE2 PHE A   1      32.362  26.321  13.776  0.00  0.00    -0.000 A 
ATOM      5  CZ  PHE A   1      33.286  27.199  13.286  0.00  0.00    -0.000 A 
ATOM      6  CE1 PHE A   1      32.940  28.521  13.147  0.00  0.00    -0.000 A 
ATOM      7  CD1 PHE A   1      31.660  28.986  13.523  0.00  0.00    -0.004 A 
ENDBRANCH   1   2
BRANCH   1   8
ATOM      8  CA  PHE A   1      28.390  28.633  13.194  0.00  0.00    +0.137 C 
BRANCH   8   9
ATOM      9  N   PHE A   1      27.023  28.874  13.653  0.00  0.00    -0.239 NA
ATOM     10  H   PHE A   1      26.821  28.949  14.670  0.00  0.00    +0.142 HD
ENDBRANCH   8   9
BRANCH   8  11
ATOM     11  C   PHE A   1      28.462  27.336  12.366  0.00  0.00    +0.224 C 
ATOM     12  O   PHE A   1      29.018  27.332  11.267  0.00  0.00    -0.287 OA
ENDBRANCH   8  11
ENDBRANCH   1   8
TORSDOF 4
REMARK  Name = ../refined-set-2016/4loi/4loi_pocket.pdb
REMARK  270 active torsions:
REMARK  status: ('A' for Active; 'I' for Inactive)
REMARK    1  A    between atoms: _1  and  _3
REMARK    2  A    between atoms: _3  and  _4
REMARK    3  A    between atoms: _6  and  _8
REMARK    4  A    between atoms: _8  and  _9
REMARK    5  A    between atoms: _8  and  _11
REMARK    6  A    between atoms: _11  and  _12
REMARK    7  A    between atoms: _15  and  _17
REMARK    8  A    between atoms: _17  and  _18
REMARK    9  A    between atoms: _21  and  _23
REMARK   10  A    between atoms: _23  and  _24
REMARK   11  A    between atoms: _23  and  _26
REMARK   12  A    between atoms: _26  and  _27
REMARK   13  A    between atoms: _37  and  _39
REMARK   14  A    between atoms: _39  and  _40
REMARK   15  A    between atoms: _39  and  _42
REMARK   16  A    between atoms: _42  and  _43
REMARK   17  A    between atoms: _45  and  _47
REMARK   18  A    between atoms: _47  and  _48
REMARK   19  A    between atoms: _47  and  _50
REMARK   20  A    between atoms: _50  and  _51
REMARK   21  A    between atoms: _56  and  _57
REMARK   22  A    between atoms: _59  and  _61
REMARK   23  A    between atoms: _61  and  _62
REMARK   24  A    between atoms: _61  and  _64
REMARK   25  A    between atoms: _64  and  _65
REMARK   26  A    between atoms: _70  and  _71
REMARK   27  A    between atoms: _73  and  _75
REMARK   28  A    between atoms: _75  and  _76
REMARK   29  A    between atoms: _75  and  _78
REMARK   30  A    between atoms: _78  and  _79
REMARK   31  A    between atoms: _82  and  _84
REMARK   32  A    between atoms: _84  and  _85
REMARK   33  A    between atoms: _87  and  _89
REMARK   34  A    between atoms: _89  and  _90
REMARK   35  A    between atoms: _89  and  _92
REMARK   36  A    between atoms: _92  and  _93
REMARK   37  A    between atoms: _98  and  _99
REMARK   38  A    between atoms: _101  and  _103
REMARK   39  A    between atoms: _103  and  _104
REMARK   40  A    between atoms: _103  and  _106
REMARK   41  A    between atoms: _106  and  _107
REMARK   42  A    between atoms: _110  and  _112
REMARK   43  A    between atoms: _112  and  _113
REMARK   44  A    between atoms: _112  and  _115
REMARK   45  A    between atoms: _115  and  _116
REMARK   46  A    between atoms: _116  and  _117
REMARK   47  A    between atoms: _117  and  _118
REMARK   48  A    between atoms: _127  and  _129
REMARK   49  A    between atoms: _129  and  _130
REMARK   50  A    between atoms: _129  and  _132
REMARK   51  A    between atoms: _132  and  _133
REMARK   52  A    between atoms: _136  and  _138
REMARK   53  A    between atoms: _138  and  _139
REMARK   54  A    between atoms: _138  and  _141
REMARK   55  A    between atoms: _141  and  _142
REMARK   56  A    between atoms: _145  and  _147
REMARK   57  A    between atoms: _147  and  _148
REMARK   58  A    between atoms: _147  and  _150
REMARK   59  A    between atoms: _150  and  _151
REMARK   60  A    between atoms: _151  and  _152
REMARK   61  A    between atoms: _157  and  _159
REMARK   62  A    between atoms: _159  and  _160
REMARK   63  A    between atoms: _159  and  _162
REMARK   64  A    between atoms: _162  and  _163
REMARK   65  A    between atoms: _168  and  _170
REMARK   66  A    between atoms: _170  and  _171
REMARK   67  A    between atoms: _174  and  _176
REMARK   68  A    between atoms: _176  and  _177
REMARK   69  A    between atoms: _179  and  _181
REMARK   70  A    between atoms: _181  and  _182
REMARK   71  A    between atoms: _181  and  _184
REMARK   72  A    between atoms: _184  and  _185
REMARK   73  A    between atoms: _188  and  _190
REMARK   74  A    between atoms: _190  and  _191
REMARK   75  A    between atoms: _190  and  _193
REMARK   76  A    between atoms: _193  and  _194
REMARK   77  A    between atoms: _194  and  _195
REMARK   78  A    between atoms: _195  and  _196
REMARK   79  A    between atoms: _205  and  _207
REMARK   80  A    between atoms: _207  and  _208
REMARK   81  A    between atoms: _207  and  _210
REMARK   82  A    between atoms: _213  and  _215
REMARK   83  A    between atoms: _215  and  _216
REMARK   84  A    between atoms: _215  and  _218
REMARK   85  A    between atoms: _218  and  _219
REMARK   86  A    between atoms: _224  and  _225
REMARK   87  A    between atoms: _227  and  _229
REMARK   88  A    between atoms: _229  and  _230
REMARK   89  A    between atoms: _229  and  _232
REMARK   90  A    between atoms: _232  and  _233
REMARK   91  A    between atoms: _235  and  _237
REMARK   92  A    between atoms: _237  and  _238
REMARK   93  A    between atoms: _237  and  _240
REMARK   94  A    between atoms: _240  and  _241
REMARK   95  A    between atoms: _246  and  _248
REMARK   96  A    between atoms: _248  and  _249
REMARK   97  A    between atoms: _248  and  _251
REMARK   98  A    between atoms: _251  and  _252
REMARK   99  A    between atoms: _252  and  _253
REMARK  100  A    between atoms: _256  and  _258
REMARK  101  A    between atoms: _258  and  _259
REMARK  102  A    between atoms: _258  and  _261
REMARK  103  A    between atoms: _261  and  _262
REMARK  104  A    between atoms: _267  and  _268
REMARK  105  A    between atoms: _270  and  _272
REMARK  106  A    between atoms: _272  and  _273
REMARK  107  A    between atoms: _276  and  _278
REMARK  108  A    between atoms: _278  and  _279
REMARK  109  A    between atoms: _278  and  _281
REMARK  110  A    between atoms: _281  and  _282
REMARK  111  A    between atoms: _286  and  _287
REMARK  112  A    between atoms: _292  and  _294
REMARK  113  A    between atoms: _294  and  _295
REMARK  114  A    between atoms: _294  and  _297
REMARK  115  A    between atoms: _297  and  _298
REMARK  116  A    between atoms: _301  and  _303
REMARK  117  A    between atoms: _303  and  _304
REMARK  118  A    between atoms: _303  and  _306
REMARK  119  A    between atoms: _306  and  _307
REMARK  120  A    between atoms: _307  and  _308
REMARK  121  A    between atoms: _313  and  _315
REMARK  122  A    between atoms: _315  and  _316
REMARK  123  A    between atoms: _315  and  _318
REMARK  124  A    between atoms: _318  and  _319
REMARK  125  A    between atoms: _322  and  _324
REMARK  126  A    between atoms: _324  and  _325
REMARK  127  A    between atoms: _324  and  _327
REMARK  128  A    between atoms: _327  and  _328
REMARK  129  A    between atoms: _331  and  _333
REMARK  130  A    between atoms: _333  and  _334
REMARK  131  A    between atoms: _333  and  _336
REMARK  132  A    between atoms: _336  and  _337
REMARK  133  A    between atoms: _343  and  _345
REMARK  134  A    between atoms: _345  and  _346
REMARK  135  A    between atoms: _348  and  _350
REMARK  136  A    between atoms: _350  and  _351
REMARK  137  A    between atoms: _350  and  _353
REMARK  138  A    between atoms: _353  and  _354
REMARK  139  A    between atoms: _357  and  _359
REMARK  140  A    between atoms: _359  and  _360
REMARK  141  A    between atoms: _363  and  _365
REMARK  142  A    between atoms: _365  and  _366
REMARK  143  A    between atoms: _365  and  _368
REMARK  144  A    between atoms: _368  and  _369
REMARK  145  A    between atoms: _379  and  _381
REMARK  146  A    between atoms: _381  and  _382
REMARK  147  A    between atoms: _381  and  _384
REMARK  148  A    between atoms: _384  and  _385
REMARK  149  A    between atoms: _387  and  _389
REMARK  150  A    between atoms: _389  and  _390
REMARK  151  A    between atoms: _389  and  _392
REMARK  152  A    between atoms: _392  and  _393
REMARK  153  A    between atoms: _398  and  _399
REMARK  154  A    between atoms: _401  and  _403
REMARK  155  A    between atoms: _403  and  _404
REMARK  156  A    between atoms: _403  and  _406
REMARK  157  A    between atoms: _406  and  _407
REMARK  158  A    between atoms: _412  and  _413
REMARK  159  A    between atoms: _415  and  _417
REMARK  160  A    between atoms: _417  and  _418
REMARK  161  A    between atoms: _417  and  _420
REMARK  162  A    between atoms: _420  and  _421
REMARK  163  A    between atoms: _424  and  _426
REMARK  164  A    between atoms: _426  and  _427
REMARK  165  A    between atoms: _429  and  _431
REMARK  166  A    between atoms: _431  and  _432
REMARK  167  A    between atoms: _431  and  _434
REMARK  168  A    between atoms: _434  and  _435
REMARK  169  A    between atoms: _440  and  _441
REMARK  170  A    between atoms: _443  and  _445
REMARK  171  A    between atoms: _445  and  _446
REMARK  172  A    between atoms: _445  and  _448
REMARK  173  A    between atoms: _448  and  _449
REMARK  174  A    between atoms: _452  and  _454
REMARK  175  A    between atoms: _454  and  _455
REMARK  176  A    between atoms: _454  and  _457
REMARK  177  A    between atoms: _457  and  _458
REMARK  178  A    between atoms: _458  and  _459
REMARK  179  A    between atoms: _459  and  _460
REMARK  180  A    between atoms: _469  and  _471
REMARK  181  A    between atoms: _471  and  _472
REMARK  182  A    between atoms: _471  and  _474
REMARK  183  A    between atoms: _474  and  _475
REMARK  184  A    between atoms: _478  and  _480
REMARK  185  A    between atoms: _480  and  _481
REMARK  186  A    between atoms: _480  and  _483
REMARK  187  A    between atoms: _483  and  _484
REMARK  188  A    between atoms: _487  and  _489
REMARK  189  A    between atoms: _489  and  _490
REMARK  190  A    between atoms: _489  and  _492
REMARK  191  A    between atoms: _492  and  _493
REMARK  192  A    between atoms: _496  and  _498
REMARK  193  A    between atoms: _498  and  _499
REMARK  194  A    between atoms: _498  and  _501
REMARK  195  A    between atoms: _501  and  _502
REMARK  196  A    between atoms: _505  and  _507
REMARK  197  A    between atoms: _507  and  _508
REMARK  198  A    between atoms: _507  and  _510
REMARK  199  A    between atoms: _510  and  _511
REMARK  200  A    between atoms: _511  and  _512
REMARK  201  A    between atoms: _517  and  _519
REMARK  202  A    between atoms: _519  and  _520
REMARK  203  A    between atoms: _519  and  _522
REMARK  204  A    between atoms: _522  and  _523
REMARK  205  A    between atoms: _528  and  _530
REMARK  206  A    between atoms: _530  and  _531
REMARK  207  A    between atoms: _534  and  _536
REMARK  208  A    between atoms: _536  and  _537
REMARK  209  A    between atoms: _536  and  _539
REMARK  210  A    between atoms: _539  and  _540
REMARK  211  A    between atoms: _543  and  _545
REMARK  212  A    between atoms: _545  and  _546
REMARK  213  A    between atoms: _545  and  _548
REMARK  214  A    between atoms: _548  and  _549
REMARK  215  A    between atoms: _549  and  _550
REMARK  216  A    between atoms: _550  and  _551
REMARK  217  A    between atoms: _560  and  _562
REMARK  218  A    between atoms: _562  and  _563
REMARK  219  A    between atoms: _562  and  _565
REMARK  220  A    between atoms: _568  and  _570
REMARK  221  A    between atoms: _570  and  _571
REMARK  222  A    between atoms: _570  and  _573
REMARK  223  A    between atoms: _573  and  _574
REMARK  224  A    between atoms: _579  and  _580
REMARK  225  A    between atoms: _582  and  _584
REMARK  226  A    between atoms: _584  and  _585
REMARK  227  A    between atoms: _584  and  _587
REMARK  228  A    between atoms: _587  and  _588
REMARK  229  A    between atoms: _590  and  _592
REMARK  230  A    between atoms: _592  and  _593
REMARK  231  A    between atoms: _592  and  _595
REMARK  232  A    between atoms: _595  and  _596
REMARK  233  A    between atoms: _601  and  _603
REMARK  234  A    between atoms: _603  and  _604
REMARK  235  A    between atoms: _603  and  _606
REMARK  236  A    between atoms: _606  and  _607
REMARK  237  A    between atoms: _609  and  _611
REMARK  238  A    between atoms: _611  and  _612
REMARK  239  A    between atoms: _611  and  _614
REMARK  240  A    between atoms: _614  and  _615
REMARK  241  A    between atoms: _615  and  _616
REMARK  242  A    between atoms: _619  and  _621
REMARK  243  A    between atoms: _621  and  _622
REMARK  244  A    between atoms: _621  and  _624
REMARK  245  A    between atoms: _624  and  _625
REMARK  246  A    between atoms: _630  and  _631
REMARK  247  A    between atoms: _633  and  _635
REMARK  248  A    between atoms: _635  and  _636
REMARK  249  A    between atoms: _639  and  _641
REMARK  250  A    between atoms: _641  and  _642
REMARK  251  A    between atoms: _641  and  _644
REMARK  252  A    between atoms: _644  and  _645
REMARK  253  A    between atoms: _649  and  _650
REMARK  254  A    between atoms: _655  and  _657
REMARK  255  A    between atoms: _657  and  _658
REMARK  256  A    between atoms: _657  and  _660
REMARK  257  A    between atoms: _660  and  _661
REMARK  258  A    between atoms: _664  and  _666
REMARK  259  A    between atoms: _666  and  _667
REMARK  260  A    between atoms: _666  and  _669
REMARK  261  A    between atoms: _669  and  _670
REMARK  262  A    between atoms: _670  and  _671
REMARK  263  A    between atoms: _676  and  _678
REMARK  264  A    between atoms: _678  and  _679
REMARK  265  A    between atoms: _678  and  _681
REMARK  266  A    between atoms: _681  and  _682
REMARK  267  A    between atoms: _685  and  _687
REMARK  268  A    between atoms: _687  and  _688
REMARK  269  A    between atoms: _687  and  _690
REMARK  270  A    between atoms: _690  and  _691
REMARK                            x       y       z     vdW  Elec       q    Type
REMARK                         _______ _______ _______ _____ _____    ______ ____
ROOT
ATOM      1  C   TYR A   7      41.431  37.112  23.119  0.00  0.00    +0.241 C 
ATOM      2  O   TYR A   7      42.481  36.741  23.628  0.00  0.00    -0.273 OA
ATOM      3  N   ILE A   8      40.353  36.328  23.025  0.00  0.00    -0.297 N 
ATOM      4  H   ILE A   8      39.536  36.671  22.481  0.00  0.00    +0.150 HD
ENDROOT
BRANCH   3   5
ATOM      5  CA  ILE A   8      40.269  34.981  23.667  0.00  0.00    +0.149 C 
BRANCH   5   6
ATOM      6  C   ILE A   8      41.281  34.026  23.154  0.00  0.00    +0.241 C 
ATOM      7  O   ILE A   8      41.936  33.346  23.934  0.00  0.00    -0.273 OA
ATOM      8  N   GLY A   9      41.396  33.940  21.846  0.00  0.00    -0.295 N 
ATOM      9  H   GLY A   9      40.870  34.624  21.265  0.00  0.00    +0.150 HD
BRANCH   8  10
ATOM     10  CA  GLY A   9      42.189  32.977  21.180  0.00  0.00    +0.176 C 
BRANCH  10  11
ATOM     11  C   GLY A   9      43.617  33.420  20.888  0.00  0.00    +0.243 C 
ATOM     12  N   TYR A  10      43.943  34.655  21.179  0.00  0.00    -0.297 N 
ATOM     13  H   TYR A  10      43.256  35.296  21.624  0.00  0.00    +0.150 HD
ATOM     14  O   GLY A   9      44.395  32.659  20.346  0.00  0.00    -0.273 OA
BRANCH  12  15
ATOM     15  CA  TYR A  10      45.310  35.116  20.860  0.00  0.00    +0.153 C 
BRANCH  15  16
ATOM     16  C   TYR A  10      45.882  36.081  21.880  0.00  0.00    +0.241 C 
ATOM     17  O   TYR A  10      46.856  35.704  22.623  0.00  0.00    -0.273 OA
ATOM     18  N   LEU A  11      45.315  37.286  22.012  0.00  0.00    -0.297 N 
ATOM     19  H   LEU A  11      44.418  37.501  21.531  0.00  0.00    +0.150 HD
BRANCH  18  20
ATOM     20  CA  LEU A  11      45.970  38.293  22.838  0.00  0.00    +0.149 C 
BRANCH  20  21
ATOM     21  C   LEU A  11      45.976  37.898  24.333  0.00  0.00    +0.241 C 
ATOM     22  O   LEU A  11      46.976  38.135  25.042  0.00  0.00    -0.273 OA
ATOM     23  N   ARG A  12      44.929  37.246  24.811  0.00  0.00    -0.297 N 
ATOM     24  H   ARG A  12      44.114  37.010  24.210  0.00  0.00    +0.150 HD
BRANCH  23  25
ATOM     25  CA  ARG A  12      44.974  36.866  26.253  0.00  0.00    +0.149 C 
BRANCH  25  26
ATOM     26  C   ARG A  12      45.978  35.794  26.538  0.00  0.00    +0.241 C 
ATOM     27  O   ARG A  12      46.450  35.658  27.646  0.00  0.00    -0.273 OA
ATOM     28  N   LEU A  13      46.307  35.020  25.518  0.00  0.00    -0.297 N 
ATOM     29  H   LEU A  13      45.842  35.196  24.605  0.00  0.00    +0.150 HD
BRANCH  28  30
ATOM     30  CA  LEU A  13      47.279  33.937  25.590  0.00  0.00    +0.149 C 
BRANCH  30  31
ATOM     31  C   LEU A  13      48.700  34.436  25.444  0.00  0.00    +0.241 C 
ATOM     32  O   LEU A  13      49.589  33.912  26.108  0.00  0.00    -0.273 OA
ATOM     33  N   ILE A  14      48.944  35.376  24.541  0.00  0.00    -0.298 N 
ATOM     34  H   ILE A  14      48.162  35.767  23.977  0.00  0.00    +0.150 HD
BRANCH  33  35
ATOM     35  CA  ILE A  14      50.327  35.874  24.331  0.00  0.00    +0.137 C 
BRANCH  35  36
ATOM     36  C   ILE A  14      50.744  37.098  25.149  0.00  0.00    +0.227 C 
ATOM     37  O   ILE A  14      51.908  37.240  25.441  0.00  0.00    -0.286 OA
ENDBRANCH  35  36
BRANCH  35  38
ATOM     38  CB  ILE A  14      50.667  36.140  22.857  0.00  0.00    +0.026 C 
ATOM     39  CG2 ILE A  14      50.492  34.889  22.013  0.00  0.00    +0.002 C 
BRANCH  38  40
ATOM     40  CG1 ILE A  14      49.909  37.331  22.289  0.00  0.00    +0.002 C 
ATOM     41  CD1 ILE A  14      50.663  37.937  21.122  0.00  0.00    +0.000 C 
ENDBRANCH  38  40
ENDBRANCH  35  38
ENDBRANCH  33  35
ENDBRANCH  30  31
BRANCH  30  42
ATOM     42  CB  LEU A  13      47.022  32.911  24.506  0.00  0.00    +0.029 C 
BRANCH  42  43
ATOM     43  CG  LEU A  13      45.641  32.292  24.462  0.00  0.00    +0.002 C 
ATOM     44  CD2 LEU A  13      45.287  31.631  25.778  0.00  0.00    +0.000 C 
ATOM     45  CD1 LEU A  13      45.565  31.354  23.265  0.00  0.00    +0.000 C 
ENDBRANCH  42  43
ENDBRANCH  30  42
ENDBRANCH  28  30
ENDBRANCH  25  26
BRANCH  25  46
ATOM     46  CB  ARG A  12      43.584  36.506  26.763  0.00  0.00    +0.033 C 
BRANCH  46  47
ATOM     47  CG  ARG A  12      43.210  35.094  26.651  0.00  0.00    +0.045 C 
BRANCH  47  48
ATOM     48  CD  ARG A  12      41.874  34.787  27.374  0.00  0.00    +0.174 C 
BRANCH  48  49
ATOM     49  NE  ARG A  12      41.405  33.502  26.879  0.00  0.00    -0.265 N 
ATOM     50  CZ  ARG A  12      40.437  32.776  27.453  0.00  0.00    +0.342 C 
ATOM     51  NH2 ARG A  12      39.825  33.239  28.521  0.00  0.00    -0.292 N 
ATOM     52 HH21 ARG A  12      39.072  32.681  28.972  0.00  0.00    +0.255 HD
ATOM     53 HH22 ARG A  12      40.094  34.163  28.915  0.00  0.00    +0.255 HD
ATOM     54  NH1 ARG A  12      40.123  31.567  26.989  0.00  0.00    -0.292 N 
ATOM     55 HH11 ARG A  12      39.369  31.015  27.445  0.00  0.00    +0.255 HD
ATOM     56 HH12 ARG A  12      40.632  31.176  26.171  0.00  0.00    +0.255 HD
ATOM     57  HE  ARG A  12      41.852  33.121  26.021  0.00  0.00    +0.259 HD
ENDBRANCH  48  49
ENDBRANCH  47  48
ENDBRANCH  46  47
ENDBRANCH  25  46
ENDBRANCH  23  25
ENDBRANCH  20  21
BRANCH  20  58
ATOM     58  CB  LEU A  11      45.371  39.671  22.710  0.00  0.00    +0.029 C 
BRANCH  58  59
ATOM     59  CG  LEU A  11      45.491  40.286  21.318  0.00  0.00    +0.002 C 
ATOM     60  CD2 LEU A  11      44.802  41.625  21.342  0.00  0.00    +0.000 C 
ATOM     61  CD1 LEU A  11      46.919  40.446  20.940  0.00  0.00    +0.000 C 
ENDBRANCH  58  59
ENDBRANCH  20  58
ENDBRANCH  18  20
ENDBRANCH  15  16
BRANCH  15  62
ATOM     62  CB  TYR A  10      45.321  35.731  19.462  0.00  0.00    +0.055 C 
BRANCH  62  63
ATOM     63  CG  TYR A  10      46.705  36.177  19.002  0.00  0.00    -0.020 A 
ATOM     64  CD2 TYR A  10      47.751  35.251  18.905  0.00  0.00    -0.001 A 
ATOM     65  CE2 TYR A  10      49.014  35.646  18.484  0.00  0.00    +0.036 A 
ATOM     66  CZ  TYR A  10      49.228  36.967  18.115  0.00  0.00    +0.134 A 
ATOM     67  CE1 TYR A  10      48.218  37.886  18.228  0.00  0.00    +0.036 A 
ATOM     68  CD1 TYR A  10      46.962  37.487  18.650  0.00  0.00    -0.001 A 
BRANCH  66  69
ATOM     69  OH  TYR A  10      50.487  37.377  17.675  0.00  0.00    -0.506 OA
ATOM     70  HH  TYR A  10      50.408  37.765  16.768  0.00  0.00    +0.292 HD
ENDBRANCH  66  69
ENDBRANCH  62  63
ENDBRANCH  15  62
ENDBRANCH  12  15
ENDBRANCH  10  11
ENDBRANCH   8  10
ENDBRANCH   5   6
BRANCH   5  71
ATOM     71  CB  ILE A   8      38.840  34.429  23.526  0.00  0.00    +0.027 C 
ATOM     72  CG2 ILE A   8      38.774  32.939  23.800  0.00  0.00    +0.002 C 
BRANCH  71  73
ATOM     73  CG1 ILE A   8      37.920  35.237  24.409  0.00  0.00    +0.002 C 
ATOM     74  CD1 ILE A   8      36.453  35.061  24.020  0.00  0.00    +0.000 C 
ENDBRANCH  71  73
ENDBRANCH   5  71
ENDBRANCH   3   5
BRANCH   1  75
ATOM     75  CA  TYR A   7      41.302  38.508  22.534  0.00  0.00    +0.153 C 
BRANCH  75  77
ATOM     76  C   TYR A   6      41.724  37.994  20.226  0.00  0.00    +0.241 C 
ATOM     77  N   TYR A   7      40.919  38.454  21.150  0.00  0.00    -0.297 N 
ATOM     78  H   TYR A   7      39.974  38.790  20.874  0.00  0.00    +0.150 HD
ATOM     79  O   TYR A   6      42.819  37.655  20.466  0.00  0.00    -0.273 OA
BRANCH  76  80
ATOM     80  CA  TYR A   6      41.198  37.871  18.805  0.00  0.00    +0.153 C 
BRANCH  80  83
ATOM     81  C   SER A   5      39.432  36.228  19.281  0.00  0.00    +0.243 C 
ATOM     82  O   SER A   5      40.243  35.407  19.737  0.00  0.00    -0.273 OA
ATOM     83  N   TYR A   6      39.794  37.421  18.806  0.00  0.00    -0.297 N 
ATOM     84  H   TYR A   6      39.062  38.054  18.424  0.00  0.00    +0.150 HD
BRANCH  81  85
ATOM     85  CA  SER A   5      37.927  35.931  19.254  0.00  0.00    +0.178 C 
BRANCH  85  88
ATOM     86  C   TRP A   4      37.232  37.585  20.892  0.00  0.00    +0.241 C 
ATOM     87  O   TRP A   4      37.990  37.099  21.692  0.00  0.00    -0.273 OA
ATOM     88  N   SER A   5      37.163  37.085  19.657  0.00  0.00    -0.295 N 
ATOM     89  H   SER A   5      36.538  37.542  18.963  0.00  0.00    +0.150 HD
BRANCH  86  90
ATOM     90  CA  TRP A   4      36.395  38.806  21.239  0.00  0.00    +0.153 C 
BRANCH  90  93
ATOM     91  C   ALA A   3      37.480  40.345  19.686  0.00  0.00    +0.241 C 
ATOM     92  O   ALA A   3      38.552  40.136  20.214  0.00  0.00    -0.273 OA
ATOM     93  N   TRP A   4      36.353  39.791  20.129  0.00  0.00    -0.297 N 
ATOM     94  H   TRP A   4      35.443  40.049  19.697  0.00  0.00    +0.150 HD
BRANCH  91  95
ATOM     95  CA  ALA A   3      37.355  41.211  18.477  0.00  0.00    +0.149 C 
ATOM     96  CB  ALA A   3      36.830  42.573  18.843  0.00  0.00    +0.031 C 
BRANCH  95  98
ATOM     97  C   LEU A   2      36.894  39.496  16.806  0.00  0.00    +0.241 C 
ATOM     98  N   ALA A   3      36.487  40.581  17.445  0.00  0.00    -0.297 N 
ATOM     99  H   ALA A   3      35.558  40.995  17.226  0.00  0.00    +0.150 HD
ATOM    100  O   LEU A   2      37.956  38.956  17.056  0.00  0.00    -0.273 OA
BRANCH  97 101
ATOM    101  CA  LEU A   2      35.937  38.871  15.763  0.00  0.00    +0.149 C 
BRANCH 101 104
ATOM    102  C   GLY A   1      34.150  38.272  17.240  0.00  0.00    +0.240 C 
ATOM    103  O   GLY A   1      34.935  37.551  17.892  0.00  0.00    -0.274 OA
ATOM    104  N   LEU A   2      34.554  38.975  16.201  0.00  0.00    -0.297 N 
ATOM    105  H   LEU A   2      33.890  39.598  15.699  0.00  0.00    +0.150 HD
BRANCH 102 106
ATOM    106  CA  GLY A   1      32.655  38.370  17.613  0.00  0.00    +0.169 C 
BRANCH 106 107
ATOM    107  N   GLY A   1      32.163  39.712  17.553  0.00  0.00    -0.236 NA
ATOM    108  H   GLY A   1      31.434  39.948  16.850  0.00  0.00    +0.142 HD
ENDBRANCH 106 107
ENDBRANCH 102 106
ENDBRANCH 101 104
BRANCH 101 109
ATOM    109  CB  LEU A   2      36.145  39.585  14.404  0.00  0.00    +0.029 C 
BRANCH 109 110
ATOM    110  CG  LEU A   2      35.473  38.868  13.231  0.00  0.00    +0.002 C 
ATOM    111  CD2 LEU A   2      35.990  37.447  13.040  0.00  0.00    +0.000 C 
ATOM    112  CD1 LEU A   2      35.774  39.630  11.984  0.00  0.00    +0.000 C 
ENDBRANCH 109 110
ENDBRANCH 101 109
ENDBRANCH  97 101
ENDBRANCH  95  98
ENDBRANCH  91  95
ENDBRANCH  90  93
BRANCH  90 113
ATOM    113  CB  TRP A   4      34.966  38.517  21.752  0.00  0.00    +0.057 C 
BRANCH 113 114
ATOM    114  CG  TRP A   4      34.497  39.528  22.643  0.00  0.00    -0.002 A 
ATOM    115  CD2 TRP A   4      34.790  39.610  24.022  0.00  0.00    +0.013 A 
ATOM    116  CE3 TRP A   4      35.595  38.869  24.868  0.00  0.00    +0.001 A 
ATOM    117  CZ3 TRP A   4      35.708  39.300  26.238  0.00  0.00    +0.000 A 
ATOM    118  CH2 TRP A   4      35.154  40.459  26.641  0.00  0.00    +0.001 A 
ATOM    119  CZ2 TRP A   4      34.398  41.229  25.824  0.00  0.00    +0.017 A 
ATOM    120  CE2 TRP A   4      34.255  40.802  24.490  0.00  0.00    +0.056 A 
ATOM    121  NE1 TRP A   4      33.558  41.364  23.480  0.00  0.00    -0.352 N 
ATOM    122  HE1 TRP A   4      33.001  42.240  23.540  0.00  0.00    +0.166 HD
ATOM    123  CD1 TRP A   4      33.708  40.581  22.355  0.00  0.00    +0.068 A 
ENDBRANCH 113 114
ENDBRANCH  90 113
ENDBRANCH  86  90
ENDBRANCH  85  88
BRANCH  85 124
ATOM    124  CB  SER A   5      37.541  35.536  17.789  0.00  0.00    +0.166 C 
BRANCH 124 125
ATOM    125  OG  SER A   5      38.267  34.417  17.358  0.00  0.00    -0.380 OA
ATOM    126  H   SER A   5      38.003  34.191  16.431  0.00  0.00    +0.211 HD
ENDBRANCH 124 125
ENDBRANCH  85 124
ENDBRANCH  81  85
ENDBRANCH  80  83
BRANCH  80 127
ATOM    127  CB  TYR A   6      41.271  39.151  18.034  0.00  0.00    +0.055 C 
BRANCH 127 128
ATOM    128  CG  TYR A   6      42.639  39.593  17.651  0.00  0.00    -0.020 A 
ATOM    129  CD2 TYR A   6      43.058  40.830  17.968  0.00  0.00    -0.001 A 
ATOM    130  CE2 TYR A   6      44.300  41.320  17.501  0.00  0.00    +0.036 A 
ATOM    131  CZ  TYR A   6      45.131  40.513  16.839  0.00  0.00    +0.134 A 
ATOM    132  CE1 TYR A   6      44.761  39.199  16.573  0.00  0.00    +0.036 A 
ATOM    133  CD1 TYR A   6      43.510  38.771  16.958  0.00  0.00    -0.001 A 
BRANCH 131 134
ATOM    134  OH  TYR A   6      46.354  41.023  16.508  0.00  0.00    -0.506 OA
ATOM    135  HH  TYR A   6      46.877  40.336  16.024  0.00  0.00    +0.292 HD
ENDBRANCH 131 134
ENDBRANCH 127 128
ENDBRANCH  80 127
ENDBRANCH  76  80
ENDBRANCH  75  77
BRANCH  75 136
ATOM    136  CB  TYR A   7      40.323  39.353  23.344  0.00  0.00    +0.055 C 
BRANCH 136 137
ATOM    137  CG  TYR A   7      40.596  39.310  24.837  0.00  0.00    -0.020 A 
ATOM    138  CD2 TYR A   7      39.661  38.787  25.666  0.00  0.00    -0.001 A 
ATOM    139  CE2 TYR A   7      39.848  38.726  27.014  0.00  0.00    +0.036 A 
ATOM    140  CZ  TYR A   7      41.022  39.164  27.547  0.00  0.00    +0.134 A 
ATOM    141  CE1 TYR A   7      42.030  39.698  26.733  0.00  0.00    +0.036 A 
ATOM    142  CD1 TYR A   7      41.802  39.807  25.401  0.00  0.00    -0.001 A 
BRANCH 140 143
ATOM    143  OH  TYR A   7      41.151  39.074  28.903  0.00  0.00    -0.506 OA
ATOM    144  HH  TYR A   7      42.039  39.419  29.173  0.00  0.00    +0.292 HD
ENDBRANCH 140 143
ENDBRANCH 136 137
ENDBRANCH  75 136
ENDBRANCH   1  75
TORSDOF 55
REMARK  Name = ../refined-set-2016/4loi/4loi_pocket.pdb
REMARK  270 active torsions:
REMARK  status: ('A' for Active; 'I' for Inactive)
REMARK    1  A    between atoms: _1  and  _3
REMARK    2  A    between atoms: _3  and  _4
REMARK    3  A    between atoms: _6  and  _8
REMARK    4  A    between atoms: _8  and  _9
REMARK    5  A    between atoms: _8  and  _11
REMARK    6  A    between atoms: _11  and  _12
REMARK    7  A    between atoms: _15  and  _17
REMARK    8  A    between atoms: _17  and  _18
REMARK    9  A    between atoms: _21  and  _23
REMARK   10  A    between atoms: _23  and  _24
REMARK   11  A    between atoms: _23  and  _26
REMARK   12  A    between atoms: _26  and  _27
REMARK   13  A    between atoms: _37  and  _39
REMARK   14  A    between atoms: _39  and  _40
REMARK   15  A    between atoms: _39  and  _42
REMARK   16  A    between atoms: _42  and  _43
REMARK   17  A    between atoms: _45  and  _47
REMARK   18  A    between atoms: _47  and  _48
REMARK   19  A    between atoms: _47  and  _50
REMARK   20  A    between atoms: _50  and  _51
REMARK   21  A    between atoms: _56  and  _57
REMARK   22  A    between atoms: _59  and  _61
REMARK   23  A    between atoms: _61  and  _62
REMARK   24  A    between atoms: _61  and  _64
REMARK   25  A    between atoms: _64  and  _65
REMARK   26  A    between atoms: _70  and  _71
REMARK   27  A    between atoms: _73  and  _75
REMARK   28  A    between atoms: _75  and  _76
REMARK   29  A    between atoms: _75  and  _78
REMARK   30  A    between atoms: _78  and  _79
REMARK   31  A    between atoms: _82  and  _84
REMARK   32  A    between atoms: _84  and  _85
REMARK   33  A    between atoms: _87  and  _89
REMARK   34  A    between atoms: _89  and  _90
REMARK   35  A    between atoms: _89  and  _92
REMARK   36  A    between atoms: _92  and  _93
REMARK   37  A    between atoms: _98  and  _99
REMARK   38  A    between atoms: _101  and  _103
REMARK   39  A    between atoms: _103  and  _104
REMARK   40  A    between atoms: _103  and  _106
REMARK   41  A    between atoms: _106  and  _107
REMARK   42  A    between atoms: _110  and  _112
REMARK   43  A    between atoms: _112  and  _113
REMARK   44  A    between atoms: _112  and  _115
REMARK   45  A    between atoms: _115  and  _116
REMARK   46  A    between atoms: _116  and  _117
REMARK   47  A    between atoms: _117  and  _118
REMARK   48  A    between atoms: _127  and  _129
REMARK   49  A    between atoms: _129  and  _130
REMARK   50  A    between atoms: _129  and  _132
REMARK   51  A    between atoms: _132  and  _133
REMARK   52  A    between atoms: _136  and  _138
REMARK   53  A    between atoms: _138  and  _139
REMARK   54  A    between atoms: _138  and  _141
REMARK   55  A    between atoms: _141  and  _142
REMARK   56  A    between atoms: _145  and  _147
REMARK   57  A    between atoms: _147  and  _148
REMARK   58  A    between atoms: _147  and  _150
REMARK   59  A    between atoms: _150  and  _151
REMARK   60  A    between atoms: _151  and  _152
REMARK   61  A    between atoms: _157  and  _159
REMARK   62  A    between atoms: _159  and  _160
REMARK   63  A    between atoms: _159  and  _162
REMARK   64  A    between atoms: _162  and  _163
REMARK   65  A    between atoms: _168  and  _170
REMARK   66  A    between atoms: _170  and  _171
REMARK   67  A    between atoms: _174  and  _176
REMARK   68  A    between atoms: _176  and  _177
REMARK   69  A    between atoms: _179  and  _181
REMARK   70  A    between atoms: _181  and  _182
REMARK   71  A    between atoms: _181  and  _184
REMARK   72  A    between atoms: _184  and  _185
REMARK   73  A    between atoms: _188  and  _190
REMARK   74  A    between atoms: _190  and  _191
REMARK   75  A    between atoms: _190  and  _193
REMARK   76  A    between atoms: _193  and  _194
REMARK   77  A    between atoms: _194  and  _195
REMARK   78  A    between atoms: _195  and  _196
REMARK   79  A    between atoms: _205  and  _207
REMARK   80  A    between atoms: _207  and  _208
REMARK   81  A    between atoms: _207  and  _210
REMARK   82  A    between atoms: _213  and  _215
REMARK   83  A    between atoms: _215  and  _216
REMARK   84  A    between atoms: _215  and  _218
REMARK   85  A    between atoms: _218  and  _219
REMARK   86  A    between atoms: _224  and  _225
REMARK   87  A    between atoms: _227  and  _229
REMARK   88  A    between atoms: _229  and  _230
REMARK   89  A    between atoms: _229  and  _232
REMARK   90  A    between atoms: _232  and  _233
REMARK   91  A    between atoms: _235  and  _237
REMARK   92  A    between atoms: _237  and  _238
REMARK   93  A    between atoms: _237  and  _240
REMARK   94  A    between atoms: _240  and  _241
REMARK   95  A    between atoms: _246  and  _248
REMARK   96  A    between atoms: _248  and  _249
REMARK   97  A    between atoms: _248  and  _251
REMARK   98  A    between atoms: _251  and  _252
REMARK   99  A    between atoms: _252  and  _253
REMARK  100  A    between atoms: _256  and  _258
REMARK  101  A    between atoms: _258  and  _259
REMARK  102  A    between atoms: _258  and  _261
REMARK  103  A    between atoms: _261  and  _262
REMARK  104  A    between atoms: _267  and  _268
REMARK  105  A    between atoms: _270  and  _272
REMARK  106  A    between atoms: _272  and  _273
REMARK  107  A    between atoms: _276  and  _278
REMARK  108  A    between atoms: _278  and  _279
REMARK  109  A    between atoms: _278  and  _281
REMARK  110  A    between atoms: _281  and  _282
REMARK  111  A    between atoms: _286  and  _287
REMARK  112  A    between atoms: _292  and  _294
REMARK  113  A    between atoms: _294  and  _295
REMARK  114  A    between atoms: _294  and  _297
REMARK  115  A    between atoms: _297  and  _298
REMARK  116  A    between atoms: _301  and  _303
REMARK  117  A    between atoms: _303  and  _304
REMARK  118  A    between atoms: _303  and  _306
REMARK  119  A    between atoms: _306  and  _307
REMARK  120  A    between atoms: _307  and  _308
REMARK  121  A    between atoms: _313  and  _315
REMARK  122  A    between atoms: _315  and  _316
REMARK  123  A    between atoms: _315  and  _318
REMARK  124  A    between atoms: _318  and  _319
REMARK  125  A    between atoms: _322  and  _324
REMARK  126  A    between atoms: _324  and  _325
REMARK  127  A    between atoms: _324  and  _327
REMARK  128  A    between atoms: _327  and  _328
REMARK  129  A    between atoms: _331  and  _333
REMARK  130  A    between atoms: _333  and  _334
REMARK  131  A    between atoms: _333  and  _336
REMARK  132  A    between atoms: _336  and  _337
REMARK  133  A    between atoms: _343  and  _345
REMARK  134  A    between atoms: _345  and  _346
REMARK  135  A    between atoms: _348  and  _350
REMARK  136  A    between atoms: _350  and  _351
REMARK  137  A    between atoms: _350  and  _353
REMARK  138  A    between atoms: _353  and  _354
REMARK  139  A    between atoms: _357  and  _359
REMARK  140  A    between atoms: _359  and  _360
REMARK  141  A    between atoms: _363  and  _365
REMARK  142  A    between atoms: _365  and  _366
REMARK  143  A    between atoms: _365  and  _368
REMARK  144  A    between atoms: _368  and  _369
REMARK  145  A    between atoms: _379  and  _381
REMARK  146  A    between atoms: _381  and  _382
REMARK  147  A    between atoms: _381  and  _384
REMARK  148  A    between atoms: _384  and  _385
REMARK  149  A    between atoms: _387  and  _389
REMARK  150  A    between atoms: _389  and  _390
REMARK  151  A    between atoms: _389  and  _392
REMARK  152  A    between atoms: _392  and  _393
REMARK  153  A    between atoms: _398  and  _399
REMARK  154  A    between atoms: _401  and  _403
REMARK  155  A    between atoms: _403  and  _404
REMARK  156  A    between atoms: _403  and  _406
REMARK  157  A    between atoms: _406  and  _407
REMARK  158  A    between atoms: _412  and  _413
REMARK  159  A    between atoms: _415  and  _417
REMARK  160  A    between atoms: _417  and  _418
REMARK  161  A    between atoms: _417  and  _420
REMARK  162  A    between atoms: _420  and  _421
REMARK  163  A    between atoms: _424  and  _426
REMARK  164  A    between atoms: _426  and  _427
REMARK  165  A    between atoms: _429  and  _431
REMARK  166  A    between atoms: _431  and  _432
REMARK  167  A    between atoms: _431  and  _434
REMARK  168  A    between atoms: _434  and  _435
REMARK  169  A    between atoms: _440  and  _441
REMARK  170  A    between atoms: _443  and  _445
REMARK  171  A    between atoms: _445  and  _446
REMARK  172  A    between atoms: _445  and  _448
REMARK  173  A    between atoms: _448  and  _449
REMARK  174  A    between atoms: _452  and  _454
REMARK  175  A    between atoms: _454  and  _455
REMARK  176  A    between atoms: _454  and  _457
REMARK  177  A    between atoms: _457  and  _458
REMARK  178  A    between atoms: _458  and  _459
REMARK  179  A    between atoms: _459  and  _460
REMARK  180  A    between atoms: _469  and  _471
REMARK  181  A    between atoms: _471  and  _472
REMARK  182  A    between atoms: _471  and  _474
REMARK  183  A    between atoms: _474  and  _475
REMARK  184  A    between atoms: _478  and  _480
REMARK  185  A    between atoms: _480  and  _481
REMARK  186  A    between atoms: _480  and  _483
REMARK  187  A    between atoms: _483  and  _484
REMARK  188  A    between atoms: _487  and  _489
REMARK  189  A    between atoms: _489  and  _490
REMARK  190  A    between atoms: _489  and  _492
REMARK  191  A    between atoms: _492  and  _493
REMARK  192  A    between atoms: _496  and  _498
REMARK  193  A    between atoms: _498  and  _499
REMARK  194  A    between atoms: _498  and  _501
REMARK  195  A    between atoms: _501  and  _502
REMARK  196  A    between atoms: _505  and  _507
REMARK  197  A    between atoms: _507  and  _508
REMARK  198  A    between atoms: _507  and  _510
REMARK  199  A    between atoms: _510  and  _511
REMARK  200  A    between atoms: _511  and  _512
REMARK  201  A    between atoms: _517  and  _519
REMARK  202  A    between atoms: _519  and  _520
REMARK  203  A    between atoms: _519  and  _522
REMARK  204  A    between atoms: _522  and  _523
REMARK  205  A    between atoms: _528  and  _530
REMARK  206  A    between atoms: _530  and  _531
REMARK  207  A    between atoms: _534  and  _536
REMARK  208  A    between atoms: _536  and  _537
REMARK  209  A    between atoms: _536  and  _539
REMARK  210  A    between atoms: _539  and  _540
REMARK  211  A    between atoms: _543  and  _545
REMARK  212  A    between atoms: _545  and  _546
REMARK  213  A    between atoms: _545  and  _548
REMARK  214  A    between atoms: _548  and  _549
REMARK  215  A    between atoms: _549  and  _550
REMARK  216  A    between atoms: _550  and  _551
REMARK  217  A    between atoms: _560  and  _562
REMARK  218  A    between atoms: _562  and  _563
REMARK  219  A    between atoms: _562  and  _565
REMARK  220  A    between atoms: _568  and  _570
REMARK  221  A    between atoms: _570  and  _571
REMARK  222  A    between atoms: _570  and  _573
REMARK  223  A    between atoms: _573  and  _574
REMARK  224  A    between atoms: _579  and  _580
REMARK  225  A    between atoms: _582  and  _584
REMARK  226  A    between atoms: _584  and  _585
REMARK  227  A    between atoms: _584  and  _587
REMARK  228  A    between atoms: _587  and  _588
REMARK  229  A    between atoms: _590  and  _592
REMARK  230  A    between atoms: _592  and  _593
REMARK  231  A    between atoms: _592  and  _595
REMARK  232  A    between atoms: _595  and  _596
REMARK  233  A    between atoms: _601  and  _603
REMARK  234  A    between atoms: _603  and  _604
REMARK  235  A    between atoms: _603  and  _606
REMARK  236  A    between atoms: _606  and  _607
REMARK  237  A    between atoms: _609  and  _611
REMARK  238  A    between atoms: _611  and  _612
REMARK  239  A    between atoms: _611  and  _614
REMARK  240  A    between atoms: _614  and  _615
REMARK  241  A    between atoms: _615  and  _616
REMARK  242  A    between atoms: _619  and  _621
REMARK  243  A    between atoms: _621  and  _622
REMARK  244  A    between atoms: _621  and  _624
REMARK  245  A    between atoms: _624  and  _625
REMARK  246  A    between atoms: _630  and  _631
REMARK  247  A    between atoms: _633  and  _635
REMARK  248  A    between atoms: _635  and  _636
REMARK  249  A    between atoms: _639  and  _641
REMARK  250  A    between atoms: _641  and  _642
REMARK  251  A    between atoms: _641  and  _644
REMARK  252  A    between atoms: _644  and  _645
REMARK  253  A    between atoms: _649  and  _650
REMARK  254  A    between atoms: _655  and  _657
REMARK  255  A    between atoms: _657  and  _658
REMARK  256  A    between atoms: _657  and  _660
REMARK  257  A    between atoms: _660  and  _661
REMARK  258  A    between atoms: _664  and  _666
REMARK  259  A    between atoms: _666  and  _667
REMARK  260  A    between atoms: _666  and  _669
REMARK  261  A    between atoms: _669  and  _670
REMARK  262  A    between atoms: _670  and  _671
REMARK  263  A    between atoms: _676  and  _678
REMARK  264  A    between atoms: _678  and  _679
REMARK  265  A    between atoms: _678  and  _681
REMARK  266  A    between atoms: _681  and  _682
REMARK  267  A    between atoms: _685  and  _687
REMARK  268  A    between atoms: _687  and  _688
REMARK  269  A    between atoms: _687  and  _690
REMARK  270  A    between atoms: _690  and  _691
REMARK                            x       y       z     vdW  Elec       q    Type
REMARK                         _______ _______ _______ _____ _____    ______ ____
ROOT
ATOM      1  CA  LEU A   1      53.249  44.426  20.654  0.00  0.00    +0.133 C 
ENDROOT
BRANCH   1   2
ATOM      2  N   LEU A   1      53.691  44.939  21.943  0.00  0.00    -0.239 NA
ATOM      3  H   LEU A   1      53.204  44.622  22.806  0.00  0.00    +0.142 HD
ENDBRANCH   1   2
BRANCH   1   4
ATOM      4  C   LEU A   1      52.540  45.533  19.904  0.00  0.00    +0.224 C 
ATOM      5  O   LEU A   1      51.519  46.027  20.387  0.00  0.00    -0.287 OA
ENDBRANCH   1   4
BRANCH   1   6
ATOM      6  CB  LEU A   1      52.290  43.242  20.831  0.00  0.00    +0.025 C 
BRANCH   6   7
ATOM      7  CG  LEU A   1      51.688  42.651  19.583  0.00  0.00    +0.002 C 
ATOM      8  CD2 LEU A   1      50.732  41.483  19.974  0.00  0.00    +0.000 C 
ATOM      9  CD1 LEU A   1      52.801  42.182  18.670  0.00  0.00    +0.000 C 
ENDBRANCH   6   7
ENDBRANCH   1   6
TORSDOF 4
REMARK  Name = ../refined-set-2016/4loi/4loi_pocket.pdb
REMARK  270 active torsions:
REMARK  status: ('A' for Active; 'I' for Inactive)
REMARK    1  A    between atoms: _1  and  _3
REMARK    2  A    between atoms: _3  and  _4
REMARK    3  A    between atoms: _6  and  _8
REMARK    4  A    between atoms: _8  and  _9
REMARK    5  A    between atoms: _8  and  _11
REMARK    6  A    between atoms: _11  and  _12
REMARK    7  A    between atoms: _15  and  _17
REMARK    8  A    between atoms: _17  and  _18
REMARK    9  A    between atoms: _21  and  _23
REMARK   10  A    between atoms: _23  and  _24
REMARK   11  A    between atoms: _23  and  _26
REMARK   12  A    between atoms: _26  and  _27
REMARK   13  A    between atoms: _37  and  _39
REMARK   14  A    between atoms: _39  and  _40
REMARK   15  A    between atoms: _39  and  _42
REMARK   16  A    between atoms: _42  and  _43
REMARK   17  A    between atoms: _45  and  _47
REMARK   18  A    between atoms: _47  and  _48
REMARK   19  A    between atoms: _47  and  _50
REMARK   20  A    between atoms: _50  and  _51
REMARK   21  A    between atoms: _56  and  _57
REMARK   22  A    between atoms: _59  and  _61
REMARK   23  A    between atoms: _61  and  _62
REMARK   24  A    between atoms: _61  and  _64
REMARK   25  A    between atoms: _64  and  _65
REMARK   26  A    between atoms: _70  and  _71
REMARK   27  A    between atoms: _73  and  _75
REMARK   28  A    between atoms: _75  and  _76
REMARK   29  A    between atoms: _75  and  _78
REMARK   30  A    between atoms: _78  and  _79
REMARK   31  A    between atoms: _82  and  _84
REMARK   32  A    between atoms: _84  and  _85
REMARK   33  A    between atoms: _87  and  _89
REMARK   34  A    between atoms: _89  and  _90
REMARK   35  A    between atoms: _89  and  _92
REMARK   36  A    between atoms: _92  and  _93
REMARK   37  A    between atoms: _98  and  _99
REMARK   38  A    between atoms: _101  and  _103
REMARK   39  A    between atoms: _103  and  _104
REMARK   40  A    between atoms: _103  and  _106
REMARK   41  A    between atoms: _106  and  _107
REMARK   42  A    between atoms: _110  and  _112
REMARK   43  A    between atoms: _112  and  _113
REMARK   44  A    between atoms: _112  and  _115
REMARK   45  A    between atoms: _115  and  _116
REMARK   46  A    between atoms: _116  and  _117
REMARK   47  A    between atoms: _117  and  _118
REMARK   48  A    between atoms: _127  and  _129
REMARK   49  A    between atoms: _129  and  _130
REMARK   50  A    between atoms: _129  and  _132
REMARK   51  A    between atoms: _132  and  _133
REMARK   52  A    between atoms: _136  and  _138
REMARK   53  A    between atoms: _138  and  _139
REMARK   54  A    between atoms: _138  and  _141
REMARK   55  A    between atoms: _141  and  _142
REMARK   56  A    between atoms: _145  and  _147
REMARK   57  A    between atoms: _147  and  _148
REMARK   58  A    between atoms: _147  and  _150
REMARK   59  A    between atoms: _150  and  _151
REMARK   60  A    between atoms: _151  and  _152
REMARK   61  A    between atoms: _157  and  _159
REMARK   62  A    between atoms: _159  and  _160
REMARK   63  A    between atoms: _159  and  _162
REMARK   64  A    between atoms: _162  and  _163
REMARK   65  A    between atoms: _168  and  _170
REMARK   66  A    between atoms: _170  and  _171
REMARK   67  A    between atoms: _174  and  _176
REMARK   68  A    between atoms: _176  and  _177
REMARK   69  A    between atoms: _179  and  _181
REMARK   70  A    between atoms: _181  and  _182
REMARK   71  A    between atoms: _181  and  _184
REMARK   72  A    between atoms: _184  and  _185
REMARK   73  A    between atoms: _188  and  _190
REMARK   74  A    between atoms: _190  and  _191
REMARK   75  A    between atoms: _190  and  _193
REMARK   76  A    between atoms: _193  and  _194
REMARK   77  A    between atoms: _194  and  _195
REMARK   78  A    between atoms: _195  and  _196
REMARK   79  A    between atoms: _205  and  _207
REMARK   80  A    between atoms: _207  and  _208
REMARK   81  A    between atoms: _207  and  _210
REMARK   82  A    between atoms: _213  and  _215
REMARK   83  A    between atoms: _215  and  _216
REMARK   84  A    between atoms: _215  and  _218
REMARK   85  A    between atoms: _218  and  _219
REMARK   86  A    between atoms: _224  and  _225
REMARK   87  A    between atoms: _227  and  _229
REMARK   88  A    between atoms: _229  and  _230
REMARK   89  A    between atoms: _229  and  _232
REMARK   90  A    between atoms: _232  and  _233
REMARK   91  A    between atoms: _235  and  _237
REMARK   92  A    between atoms: _237  and  _238
REMARK   93  A    between atoms: _237  and  _240
REMARK   94  A    between atoms: _240  and  _241
REMARK   95  A    between atoms: _246  and  _248
REMARK   96  A    between atoms: _248  and  _249
REMARK   97  A    between atoms: _248  and  _251
REMARK   98  A    between atoms: _251  and  _252
REMARK   99  A    between atoms: _252  and  _253
REMARK  100  A    between atoms: _256  and  _258
REMARK  101  A    between atoms: _258  and  _259
REMARK  102  A    between atoms: _258  and  _261
REMARK  103  A    between atoms: _261  and  _262
REMARK  104  A    between atoms: _267  and  _268
REMARK  105  A    between atoms: _270  and  _272
REMARK  106  A    between atoms: _272  and  _273
REMARK  107  A    between atoms: _276  and  _278
REMARK  108  A    between atoms: _278  and  _279
REMARK  109  A    between atoms: _278  and  _281
REMARK  110  A    between atoms: _281  and  _282
REMARK  111  A    between atoms: _286  and  _287
REMARK  112  A    between atoms: _292  and  _294
REMARK  113  A    between atoms: _294  and  _295
REMARK  114  A    between atoms: _294  and  _297
REMARK  115  A    between atoms: _297  and  _298
REMARK  116  A    between atoms: _301  and  _303
REMARK  117  A    between atoms: _303  and  _304
REMARK  118  A    between atoms: _303  and  _306
REMARK  119  A    between atoms: _306  and  _307
REMARK  120  A    between atoms: _307  and  _308
REMARK  121  A    between atoms: _313  and  _315
REMARK  122  A    between atoms: _315  and  _316
REMARK  123  A    between atoms: _315  and  _318
REMARK  124  A    between atoms: _318  and  _319
REMARK  125  A    between atoms: _322  and  _324
REMARK  126  A    between atoms: _324  and  _325
REMARK  127  A    between atoms: _324  and  _327
REMARK  128  A    between atoms: _327  and  _328
REMARK  129  A    between atoms: _331  and  _333
REMARK  130  A    between atoms: _333  and  _334
REMARK  131  A    between atoms: _333  and  _336
REMARK  132  A    between atoms: _336  and  _337
REMARK  133  A    between atoms: _343  and  _345
REMARK  134  A    between atoms: _345  and  _346
REMARK  135  A    between atoms: _348  and  _350
REMARK  136  A    between atoms: _350  and  _351
REMARK  137  A    between atoms: _350  and  _353
REMARK  138  A    between atoms: _353  and  _354
REMARK  139  A    between atoms: _357  and  _359
REMARK  140  A    between atoms: _359  and  _360
REMARK  141  A    between atoms: _363  and  _365
REMARK  142  A    between atoms: _365  and  _366
REMARK  143  A    between atoms: _365  and  _368
REMARK  144  A    between atoms: _368  and  _369
REMARK  145  A    between atoms: _379  and  _381
REMARK  146  A    between atoms: _381  and  _382
REMARK  147  A    between atoms: _381  and  _384
REMARK  148  A    between atoms: _384  and  _385
REMARK  149  A    between atoms: _387  and  _389
REMARK  150  A    between atoms: _389  and  _390
REMARK  151  A    between atoms: _389  and  _392
REMARK  152  A    between atoms: _392  and  _393
REMARK  153  A    between atoms: _398  and  _399
REMARK  154  A    between atoms: _401  and  _403
REMARK  155  A    between atoms: _403  and  _404
REMARK  156  A    between atoms: _403  and  _406
REMARK  157  A    between atoms: _406  and  _407
REMARK  158  A    between atoms: _412  and  _413
REMARK  159  A    between atoms: _415  and  _417
REMARK  160  A    between atoms: _417  and  _418
REMARK  161  A    between atoms: _417  and  _420
REMARK  162  A    between atoms: _420  and  _421
REMARK  163  A    between atoms: _424  and  _426
REMARK  164  A    between atoms: _426  and  _427
REMARK  165  A    between atoms: _429  and  _431
REMARK  166  A    between atoms: _431  and  _432
REMARK  167  A    between atoms: _431  and  _434
REMARK  168  A    between atoms: _434  and  _435
REMARK  169  A    between atoms: _440  and  _441
REMARK  170  A    between atoms: _443  and  _445
REMARK  171  A    between atoms: _445  and  _446
REMARK  172  A    between atoms: _445  and  _448
REMARK  173  A    between atoms: _448  and  _449
REMARK  174  A    between atoms: _452  and  _454
REMARK  175  A    between atoms: _454  and  _455
REMARK  176  A    between atoms: _454  and  _457
REMARK  177  A    between atoms: _457  and  _458
REMARK  178  A    between atoms: _458  and  _459
REMARK  179  A    between atoms: _459  and  _460
REMARK  180  A    between atoms: _469  and  _471
REMARK  181  A    between atoms: _471  and  _472
REMARK  182  A    between atoms: _471  and  _474
REMARK  183  A    between atoms: _474  and  _475
REMARK  184  A    between atoms: _478  and  _480
REMARK  185  A    between atoms: _480  and  _481
REMARK  186  A    between atoms: _480  and  _483
REMARK  187  A    between atoms: _483  and  _484
REMARK  188  A    between atoms: _487  and  _489
REMARK  189  A    between atoms: _489  and  _490
REMARK  190  A    between atoms: _489  and  _492
REMARK  191  A    between atoms: _492  and  _493
REMARK  192  A    between atoms: _496  and  _498
REMARK  193  A    between atoms: _498  and  _499
REMARK  194  A    between atoms: _498  and  _501
REMARK  195  A    between atoms: _501  and  _502
REMARK  196  A    between atoms: _505  and  _507
REMARK  197  A    between atoms: _507  and  _508
REMARK  198  A    between atoms: _507  and  _510
REMARK  199  A    between atoms: _510  and  _511
REMARK  200  A    between atoms: _511  and  _512
REMARK  201  A    between atoms: _517  and  _519
REMARK  202  A    between atoms: _519  and  _520
REMARK  203  A    between atoms: _519  and  _522
REMARK  204  A    between atoms: _522  and  _523
REMARK  205  A    between atoms: _528  and  _530
REMARK  206  A    between atoms: _530  and  _531
REMARK  207  A    between atoms: _534  and  _536
REMARK  208  A    between atoms: _536  and  _537
REMARK  209  A    between atoms: _536  and  _539
REMARK  210  A    between atoms: _539  and  _540
REMARK  211  A    between atoms: _543  and  _545
REMARK  212  A    between atoms: _545  and  _546
REMARK  213  A    between atoms: _545  and  _548
REMARK  214  A    between atoms: _548  and  _549
REMARK  215  A    between atoms: _549  and  _550
REMARK  216  A    between atoms: _550  and  _551
REMARK  217  A    between atoms: _560  and  _562
REMARK  218  A    between atoms: _562  and  _563
REMARK  219  A    between atoms: _562  and  _565
REMARK  220  A    between atoms: _568  and  _570
REMARK  221  A    between atoms: _570  and  _571
REMARK  222  A    between atoms: _570  and  _573
REMARK  223  A    between atoms: _573  and  _574
REMARK  224  A    between atoms: _579  and  _580
REMARK  225  A    between atoms: _582  and  _584
REMARK  226  A    between atoms: _584  and  _585
REMARK  227  A    between atoms: _584  and  _587
REMARK  228  A    between atoms: _587  and  _588
REMARK  229  A    between atoms: _590  and  _592
REMARK  230  A    between atoms: _592  and  _593
REMARK  231  A    between atoms: _592  and  _595
REMARK  232  A    between atoms: _595  and  _596
REMARK  233  A    between atoms: _601  and  _603
REMARK  234  A    between atoms: _603  and  _604
REMARK  235  A    between atoms: _603  and  _606
REMARK  236  A    between atoms: _606  and  _607
REMARK  237  A    between atoms: _609  and  _611
REMARK  238  A    between atoms: _611  and  _612
REMARK  239  A    between atoms: _611  and  _614
REMARK  240  A    between atoms: _614  and  _615
REMARK  241  A    between atoms: _615  and  _616
REMARK  242  A    between atoms: _619  and  _621
REMARK  243  A    between atoms: _621  and  _622
REMARK  244  A    between atoms: _621  and  _624
REMARK  245  A    between atoms: _624  and  _625
REMARK  246  A    between atoms: _630  and  _631
REMARK  247  A    between atoms: _633  and  _635
REMARK  248  A    between atoms: _635  and  _636
REMARK  249  A    between atoms: _639  and  _641
REMARK  250  A    between atoms: _641  and  _642
REMARK  251  A    between atoms: _641  and  _644
REMARK  252  A    between atoms: _644  and  _645
REMARK  253  A    between atoms: _649  and  _650
REMARK  254  A    between atoms: _655  and  _657
REMARK  255  A    between atoms: _657  and  _658
REMARK  256  A    between atoms: _657  and  _660
REMARK  257  A    between atoms: _660  and  _661
REMARK  258  A    between atoms: _664  and  _666
REMARK  259  A    between atoms: _666  and  _667
REMARK  260  A    between atoms: _666  and  _669
REMARK  261  A    between atoms: _669  and  _670
REMARK  262  A    between atoms: _670  and  _671
REMARK  263  A    between atoms: _676  and  _678
REMARK  264  A    between atoms: _678  and  _679
REMARK  265  A    between atoms: _678  and  _681
REMARK  266  A    between atoms: _681  and  _682
REMARK  267  A    between atoms: _685  and  _687
REMARK  268  A    between atoms: _687  and  _688
REMARK  269  A    between atoms: _687  and  _690
REMARK  270  A    between atoms: _690  and  _691
REMARK                            x       y       z     vdW  Elec       q    Type
REMARK                         _______ _______ _______ _____ _____    ______ ____
ROOT
ATOM      1  CA  ILE A   1      49.219  45.798  16.042  0.00  0.00    +0.133 C 
ENDROOT
BRANCH   1   2
ATOM      2  N   ILE A   1      50.193  46.424  16.884  0.00  0.00    -0.239 NA
ATOM      3  H   ILE A   1      49.864  47.137  17.566  0.00  0.00    +0.142 HD
ENDBRANCH   1   2
BRANCH   1   4
ATOM      4  CB  ILE A   1      48.061  45.223  16.873  0.00  0.00    +0.023 C 
ATOM      5  CG2 ILE A   1      47.119  44.488  15.907  0.00  0.00    +0.002 C 
BRANCH   4   6
ATOM      6  CG1 ILE A   1      48.610  44.236  17.927  0.00  0.00    +0.002 C 
ATOM      7  CD1 ILE A   1      47.526  43.726  18.833  0.00  0.00    +0.000 C 
ENDBRANCH   4   6
ENDBRANCH   1   4
BRANCH   1   8
ATOM      8  C   ILE A   1      48.705  46.774  14.996  0.00  0.00    +0.224 C 
ATOM      9  O   ILE A   1      48.147  47.818  15.342  0.00  0.00    -0.287 OA
ENDBRANCH   1   8
TORSDOF 4
REMARK  Name = ../refined-set-2016/4loi/4loi_pocket.pdb
REMARK  270 active torsions:
REMARK  status: ('A' for Active; 'I' for Inactive)
REMARK    1  A    between atoms: _1  and  _3
REMARK    2  A    between atoms: _3  and  _4
REMARK    3  A    between atoms: _6  and  _8
REMARK    4  A    between atoms: _8  and  _9
REMARK    5  A    between atoms: _8  and  _11
REMARK    6  A    between atoms: _11  and  _12
REMARK    7  A    between atoms: _15  and  _17
REMARK    8  A    between atoms: _17  and  _18
REMARK    9  A    between atoms: _21  and  _23
REMARK   10  A    between atoms: _23  and  _24
REMARK   11  A    between atoms: _23  and  _26
REMARK   12  A    between atoms: _26  and  _27
REMARK   13  A    between atoms: _37  and  _39
REMARK   14  A    between atoms: _39  and  _40
REMARK   15  A    between atoms: _39  and  _42
REMARK   16  A    between atoms: _42  and  _43
REMARK   17  A    between atoms: _45  and  _47
REMARK   18  A    between atoms: _47  and  _48
REMARK   19  A    between atoms: _47  and  _50
REMARK   20  A    between atoms: _50  and  _51
REMARK   21  A    between atoms: _56  and  _57
REMARK   22  A    between atoms: _59  and  _61
REMARK   23  A    between atoms: _61  and  _62
REMARK   24  A    between atoms: _61  and  _64
REMARK   25  A    between atoms: _64  and  _65
REMARK   26  A    between atoms: _70  and  _71
REMARK   27  A    between atoms: _73  and  _75
REMARK   28  A    between atoms: _75  and  _76
REMARK   29  A    between atoms: _75  and  _78
REMARK   30  A    between atoms: _78  and  _79
REMARK   31  A    between atoms: _82  and  _84
REMARK   32  A    between atoms: _84  and  _85
REMARK   33  A    between atoms: _87  and  _89
REMARK   34  A    between atoms: _89  and  _90
REMARK   35  A    between atoms: _89  and  _92
REMARK   36  A    between atoms: _92  and  _93
REMARK   37  A    between atoms: _98  and  _99
REMARK   38  A    between atoms: _101  and  _103
REMARK   39  A    between atoms: _103  and  _104
REMARK   40  A    between atoms: _103  and  _106
REMARK   41  A    between atoms: _106  and  _107
REMARK   42  A    between atoms: _110  and  _112
REMARK   43  A    between atoms: _112  and  _113
REMARK   44  A    between atoms: _112  and  _115
REMARK   45  A    between atoms: _115  and  _116
REMARK   46  A    between atoms: _116  and  _117
REMARK   47  A    between atoms: _117  and  _118
REMARK   48  A    between atoms: _127  and  _129
REMARK   49  A    between atoms: _129  and  _130
REMARK   50  A    between atoms: _129  and  _132
REMARK   51  A    between atoms: _132  and  _133
REMARK   52  A    between atoms: _136  and  _138
REMARK   53  A    between atoms: _138  and  _139
REMARK   54  A    between atoms: _138  and  _141
REMARK   55  A    between atoms: _141  and  _142
REMARK   56  A    between atoms: _145  and  _147
REMARK   57  A    between atoms: _147  and  _148
REMARK   58  A    between atoms: _147  and  _150
REMARK   59  A    between atoms: _150  and  _151
REMARK   60  A    between atoms: _151  and  _152
REMARK   61  A    between atoms: _157  and  _159
REMARK   62  A    between atoms: _159  and  _160
REMARK   63  A    between atoms: _159  and  _162
REMARK   64  A    between atoms: _162  and  _163
REMARK   65  A    between atoms: _168  and  _170
REMARK   66  A    between atoms: _170  and  _171
REMARK   67  A    between atoms: _174  and  _176
REMARK   68  A    between atoms: _176  and  _177
REMARK   69  A    between atoms: _179  and  _181
REMARK   70  A    between atoms: _181  and  _182
REMARK   71  A    between atoms: _181  and  _184
REMARK   72  A    between atoms: _184  and  _185
REMARK   73  A    between atoms: _188  and  _190
REMARK   74  A    between atoms: _190  and  _191
REMARK   75  A    between atoms: _190  and  _193
REMARK   76  A    between atoms: _193  and  _194
REMARK   77  A    between atoms: _194  and  _195
REMARK   78  A    between atoms: _195  and  _196
REMARK   79  A    between atoms: _205  and  _207
REMARK   80  A    between atoms: _207  and  _208
REMARK   81  A    between atoms: _207  and  _210
REMARK   82  A    between atoms: _213  and  _215
REMARK   83  A    between atoms: _215  and  _216
REMARK   84  A    between atoms: _215  and  _218
REMARK   85  A    between atoms: _218  and  _219
REMARK   86  A    between atoms: _224  and  _225
REMARK   87  A    between atoms: _227  and  _229
REMARK   88  A    between atoms: _229  and  _230
REMARK   89  A    between atoms: _229  and  _232
REMARK   90  A    between atoms: _232  and  _233
REMARK   91  A    between atoms: _235  and  _237
REMARK   92  A    between atoms: _237  and  _238
REMARK   93  A    between atoms: _237  and  _240
REMARK   94  A    between atoms: _240  and  _241
REMARK   95  A    between atoms: _246  and  _248
REMARK   96  A    between atoms: _248  and  _249
REMARK   97  A    between atoms: _248  and  _251
REMARK   98  A    between atoms: _251  and  _252
REMARK   99  A    between atoms: _252  and  _253
REMARK  100  A    between atoms: _256  and  _258
REMARK  101  A    between atoms: _258  and  _259
REMARK  102  A    between atoms: _258  and  _261
REMARK  103  A    between atoms: _261  and  _262
REMARK  104  A    between atoms: _267  and  _268
REMARK  105  A    between atoms: _270  and  _272
REMARK  106  A    between atoms: _272  and  _273
REMARK  107  A    between atoms: _276  and  _278
REMARK  108  A    between atoms: _278  and  _279
REMARK  109  A    between atoms: _278  and  _281
REMARK  110  A    between atoms: _281  and  _282
REMARK  111  A    between atoms: _286  and  _287
REMARK  112  A    between atoms: _292  and  _294
REMARK  113  A    between atoms: _294  and  _295
REMARK  114  A    between atoms: _294  and  _297
REMARK  115  A    between atoms: _297  and  _298
REMARK  116  A    between atoms: _301  and  _303
REMARK  117  A    between atoms: _303  and  _304
REMARK  118  A    between atoms: _303  and  _306
REMARK  119  A    between atoms: _306  and  _307
REMARK  120  A    between atoms: _307  and  _308
REMARK  121  A    between atoms: _313  and  _315
REMARK  122  A    between atoms: _315  and  _316
REMARK  123  A    between atoms: _315  and  _318
REMARK  124  A    between atoms: _318  and  _319
REMARK  125  A    between atoms: _322  and  _324
REMARK  126  A    between atoms: _324  and  _325
REMARK  127  A    between atoms: _324  and  _327
REMARK  128  A    between atoms: _327  and  _328
REMARK  129  A    between atoms: _331  and  _333
REMARK  130  A    between atoms: _333  and  _334
REMARK  131  A    between atoms: _333  and  _336
REMARK  132  A    between atoms: _336  and  _337
REMARK  133  A    between atoms: _343  and  _345
REMARK  134  A    between atoms: _345  and  _346
REMARK  135  A    between atoms: _348  and  _350
REMARK  136  A    between atoms: _350  and  _351
REMARK  137  A    between atoms: _350  and  _353
REMARK  138  A    between atoms: _353  and  _354
REMARK  139  A    between atoms: _357  and  _359
REMARK  140  A    between atoms: _359  and  _360
REMARK  141  A    between atoms: _363  and  _365
REMARK  142  A    between atoms: _365  and  _366
REMARK  143  A    between atoms: _365  and  _368
REMARK  144  A    between atoms: _368  and  _369
REMARK  145  A    between atoms: _379  and  _381
REMARK  146  A    between atoms: _381  and  _382
REMARK  147  A    between atoms: _381  and  _384
REMARK  148  A    between atoms: _384  and  _385
REMARK  149  A    between atoms: _387  and  _389
REMARK  150  A    between atoms: _389  and  _390
REMARK  151  A    between atoms: _389  and  _392
REMARK  152  A    between atoms: _392  and  _393
REMARK  153  A    between atoms: _398  and  _399
REMARK  154  A    between atoms: _401  and  _403
REMARK  155  A    between atoms: _403  and  _404
REMARK  156  A    between atoms: _403  and  _406
REMARK  157  A    between atoms: _406  and  _407
REMARK  158  A    between atoms: _412  and  _413
REMARK  159  A    between atoms: _415  and  _417
REMARK  160  A    between atoms: _417  and  _418
REMARK  161  A    between atoms: _417  and  _420
REMARK  162  A    between atoms: _420  and  _421
REMARK  163  A    between atoms: _424  and  _426
REMARK  164  A    between atoms: _426  and  _427
REMARK  165  A    between atoms: _429  and  _431
REMARK  166  A    between atoms: _431  and  _432
REMARK  167  A    between atoms: _431  and  _434
REMARK  168  A    between atoms: _434  and  _435
REMARK  169  A    between atoms: _440  and  _441
REMARK  170  A    between atoms: _443  and  _445
REMARK  171  A    between atoms: _445  and  _446
REMARK  172  A    between atoms: _445  and  _448
REMARK  173  A    between atoms: _448  and  _449
REMARK  174  A    between atoms: _452  and  _454
REMARK  175  A    between atoms: _454  and  _455
REMARK  176  A    between atoms: _454  and  _457
REMARK  177  A    between atoms: _457  and  _458
REMARK  178  A    between atoms: _458  and  _459
REMARK  179  A    between atoms: _459  and  _460
REMARK  180  A    between atoms: _469  and  _471
REMARK  181  A    between atoms: _471  and  _472
REMARK  182  A    between atoms: _471  and  _474
REMARK  183  A    between atoms: _474  and  _475
REMARK  184  A    between atoms: _478  and  _480
REMARK  185  A    between atoms: _480  and  _481
REMARK  186  A    between atoms: _480  and  _483
REMARK  187  A    between atoms: _483  and  _484
REMARK  188  A    between atoms: _487  and  _489
REMARK  189  A    between atoms: _489  and  _490
REMARK  190  A    between atoms: _489  and  _492
REMARK  191  A    between atoms: _492  and  _493
REMARK  192  A    between atoms: _496  and  _498
REMARK  193  A    between atoms: _498  and  _499
REMARK  194  A    between atoms: _498  and  _501
REMARK  195  A    between atoms: _501  and  _502
REMARK  196  A    between atoms: _505  and  _507
REMARK  197  A    between atoms: _507  and  _508
REMARK  198  A    between atoms: _507  and  _510
REMARK  199  A    between atoms: _510  and  _511
REMARK  200  A    between atoms: _511  and  _512
REMARK  201  A    between atoms: _517  and  _519
REMARK  202  A    between atoms: _519  and  _520
REMARK  203  A    between atoms: _519  and  _522
REMARK  204  A    between atoms: _522  and  _523
REMARK  205  A    between atoms: _528  and  _530
REMARK  206  A    between atoms: _530  and  _531
REMARK  207  A    between atoms: _534  and  _536
REMARK  208  A    between atoms: _536  and  _537
REMARK  209  A    between atoms: _536  and  _539
REMARK  210  A    between atoms: _539  and  _540
REMARK  211  A    between atoms: _543  and  _545
REMARK  212  A    between atoms: _545  and  _546
REMARK  213  A    between atoms: _545  and  _548
REMARK  214  A    between atoms: _548  and  _549
REMARK  215  A    between atoms: _549  and  _550
REMARK  216  A    between atoms: _550  and  _551
REMARK  217  A    between atoms: _560  and  _562
REMARK  218  A    between atoms: _562  and  _563
REMARK  219  A    between atoms: _562  and  _565
REMARK  220  A    between atoms: _568  and  _570
REMARK  221  A    between atoms: _570  and  _571
REMARK  222  A    between atoms: _570  and  _573
REMARK  223  A    between atoms: _573  and  _574
REMARK  224  A    between atoms: _579  and  _580
REMARK  225  A    between atoms: _582  and  _584
REMARK  226  A    between atoms: _584  and  _585
REMARK  227  A    between atoms: _584  and  _587
REMARK  228  A    between atoms: _587  and  _588
REMARK  229  A    between atoms: _590  and  _592
REMARK  230  A    between atoms: _592  and  _593
REMARK  231  A    between atoms: _592  and  _595
REMARK  232  A    between atoms: _595  and  _596
REMARK  233  A    between atoms: _601  and  _603
REMARK  234  A    between atoms: _603  and  _604
REMARK  235  A    between atoms: _603  and  _606
REMARK  236  A    between atoms: _606  and  _607
REMARK  237  A    between atoms: _609  and  _611
REMARK  238  A    between atoms: _611  and  _612
REMARK  239  A    between atoms: _611  and  _614
REMARK  240  A    between atoms: _614  and  _615
REMARK  241  A    between atoms: _615  and  _616
REMARK  242  A    between atoms: _619  and  _621
REMARK  243  A    between atoms: _621  and  _622
REMARK  244  A    between atoms: _621  and  _624
REMARK  245  A    between atoms: _624  and  _625
REMARK  246  A    between atoms: _630  and  _631
REMARK  247  A    between atoms: _633  and  _635
REMARK  248  A    between atoms: _635  and  _636
REMARK  249  A    between atoms: _639  and  _641
REMARK  250  A    between atoms: _641  and  _642
REMARK  251  A    between atoms: _641  and  _644
REMARK  252  A    between atoms: _644  and  _645
REMARK  253  A    between atoms: _649  and  _650
REMARK  254  A    between atoms: _655  and  _657
REMARK  255  A    between atoms: _657  and  _658
REMARK  256  A    between atoms: _657  and  _660
REMARK  257  A    between atoms: _660  and  _661
REMARK  258  A    between atoms: _664  and  _666
REMARK  259  A    between atoms: _666  and  _667
REMARK  260  A    between atoms: _666  and  _669
REMARK  261  A    between atoms: _669  and  _670
REMARK  262  A    between atoms: _670  and  _671
REMARK  263  A    between atoms: _676  and  _678
REMARK  264  A    between atoms: _678  and  _679
REMARK  265  A    between atoms: _678  and  _681
REMARK  266  A    between atoms: _681  and  _682
REMARK  267  A    between atoms: _685  and  _687
REMARK  268  A    between atoms: _687  and  _688
REMARK  269  A    between atoms: _687  and  _690
REMARK  270  A    between atoms: _690  and  _691
REMARK                            x       y       z     vdW  Elec       q    Type
REMARK                         _______ _______ _______ _____ _____    ______ ____
ROOT
ATOM      1  CB  GLN A   1      54.554  31.549  23.075  0.00  0.00    +0.035 C 
ENDROOT
BRANCH   1   2
ATOM      2  CA  GLN A   1      55.427  30.374  22.761  0.00  0.00    +0.134 C 
BRANCH   2   3
ATOM      3  N   GLN A   1      56.306  30.716  21.670  0.00  0.00    -0.239 NA
ATOM      4  H   GLN A   1      55.890  31.054  20.779  0.00  0.00    +0.142 HD
ENDBRANCH   2   3
BRANCH   2   5
ATOM      5  C   GLN A   1      54.582  29.224  22.282  0.00  0.00    +0.224 C 
ATOM      6  O   GLN A   1      54.029  29.289  21.203  0.00  0.00    -0.287 OA
ENDBRANCH   2   5
ENDBRANCH   1   2
BRANCH   1   7
ATOM      7  CG  GLN A   1      53.441  31.160  24.003  0.00  0.00    +0.087 C 
BRANCH   7   8
ATOM      8  CD  GLN A   1      53.164  32.258  24.950  0.00  0.00    +0.219 C 
ATOM      9  OE1 GLN A   1      54.064  32.741  25.636  0.00  0.00    -0.275 OA
ATOM     10  NE2 GLN A   1      51.928  32.645  25.022  0.00  0.00    -0.329 N 
ATOM     11 HE21 GLN A   1      51.657  33.400  25.684  0.00  0.00    +0.145 HD
ATOM     12 HE22 GLN A   1      51.208  32.201  24.417  0.00  0.00    +0.145 HD
ENDBRANCH   7   8
ENDBRANCH   1   7
TORSDOF 5
REMARK  Name = ../refined-set-2016/4loi/4loi_pocket.pdb
REMARK  270 active torsions:
REMARK  status: ('A' for Active; 'I' for Inactive)
REMARK    1  A    between atoms: _1  and  _3
REMARK    2  A    between atoms: _3  and  _4
REMARK    3  A    between atoms: _6  and  _8
REMARK    4  A    between atoms: _8  and  _9
REMARK    5  A    between atoms: _8  and  _11
REMARK    6  A    between atoms: _11  and  _12
REMARK    7  A    between atoms: _15  and  _17
REMARK    8  A    between atoms: _17  and  _18
REMARK    9  A    between atoms: _21  and  _23
REMARK   10  A    between atoms: _23  and  _24
REMARK   11  A    between atoms: _23  and  _26
REMARK   12  A    between atoms: _26  and  _27
REMARK   13  A    between atoms: _37  and  _39
REMARK   14  A    between atoms: _39  and  _40
REMARK   15  A    between atoms: _39  and  _42
REMARK   16  A    between atoms: _42  and  _43
REMARK   17  A    between atoms: _45  and  _47
REMARK   18  A    between atoms: _47  and  _48
REMARK   19  A    between atoms: _47  and  _50
REMARK   20  A    between atoms: _50  and  _51
REMARK   21  A    between atoms: _56  and  _57
REMARK   22  A    between atoms: _59  and  _61
REMARK   23  A    between atoms: _61  and  _62
REMARK   24  A    between atoms: _61  and  _64
REMARK   25  A    between atoms: _64  and  _65
REMARK   26  A    between atoms: _70  and  _71
REMARK   27  A    between atoms: _73  and  _75
REMARK   28  A    between atoms: _75  and  _76
REMARK   29  A    between atoms: _75  and  _78
REMARK   30  A    between atoms: _78  and  _79
REMARK   31  A    between atoms: _82  and  _84
REMARK   32  A    between atoms: _84  and  _85
REMARK   33  A    between atoms: _87  and  _89
REMARK   34  A    between atoms: _89  and  _90
REMARK   35  A    between atoms: _89  and  _92
REMARK   36  A    between atoms: _92  and  _93
REMARK   37  A    between atoms: _98  and  _99
REMARK   38  A    between atoms: _101  and  _103
REMARK   39  A    between atoms: _103  and  _104
REMARK   40  A    between atoms: _103  and  _106
REMARK   41  A    between atoms: _106  and  _107
REMARK   42  A    between atoms: _110  and  _112
REMARK   43  A    between atoms: _112  and  _113
REMARK   44  A    between atoms: _112  and  _115
REMARK   45  A    between atoms: _115  and  _116
REMARK   46  A    between atoms: _116  and  _117
REMARK   47  A    between atoms: _117  and  _118
REMARK   48  A    between atoms: _127  and  _129
REMARK   49  A    between atoms: _129  and  _130
REMARK   50  A    between atoms: _129  and  _132
REMARK   51  A    between atoms: _132  and  _133
REMARK   52  A    between atoms: _136  and  _138
REMARK   53  A    between atoms: _138  and  _139
REMARK   54  A    between atoms: _138  and  _141
REMARK   55  A    between atoms: _141  and  _142
REMARK   56  A    between atoms: _145  and  _147
REMARK   57  A    between atoms: _147  and  _148
REMARK   58  A    between atoms: _147  and  _150
REMARK   59  A    between atoms: _150  and  _151
REMARK   60  A    between atoms: _151  and  _152
REMARK   61  A    between atoms: _157  and  _159
REMARK   62  A    between atoms: _159  and  _160
REMARK   63  A    between atoms: _159  and  _162
REMARK   64  A    between atoms: _162  and  _163
REMARK   65  A    between atoms: _168  and  _170
REMARK   66  A    between atoms: _170  and  _171
REMARK   67  A    between atoms: _174  and  _176
REMARK   68  A    between atoms: _176  and  _177
REMARK   69  A    between atoms: _179  and  _181
REMARK   70  A    between atoms: _181  and  _182
REMARK   71  A    between atoms: _181  and  _184
REMARK   72  A    between atoms: _184  and  _185
REMARK   73  A    between atoms: _188  and  _190
REMARK   74  A    between atoms: _190  and  _191
REMARK   75  A    between atoms: _190  and  _193
REMARK   76  A    between atoms: _193  and  _194
REMARK   77  A    between atoms: _194  and  _195
REMARK   78  A    between atoms: _195  and  _196
REMARK   79  A    between atoms: _205  and  _207
REMARK   80  A    between atoms: _207  and  _208
REMARK   81  A    between atoms: _207  and  _210
REMARK   82  A    between atoms: _213  and  _215
REMARK   83  A    between atoms: _215  and  _216
REMARK   84  A    between atoms: _215  and  _218
REMARK   85  A    between atoms: _218  and  _219
REMARK   86  A    between atoms: _224  and  _225
REMARK   87  A    between atoms: _227  and  _229
REMARK   88  A    between atoms: _229  and  _230
REMARK   89  A    between atoms: _229  and  _232
REMARK   90  A    between atoms: _232  and  _233
REMARK   91  A    between atoms: _235  and  _237
REMARK   92  A    between atoms: _237  and  _238
REMARK   93  A    between atoms: _237  and  _240
REMARK   94  A    between atoms: _240  and  _241
REMARK   95  A    between atoms: _246  and  _248
REMARK   96  A    between atoms: _248  and  _249
REMARK   97  A    between atoms: _248  and  _251
REMARK   98  A    between atoms: _251  and  _252
REMARK   99  A    between atoms: _252  and  _253
REMARK  100  A    between atoms: _256  and  _258
REMARK  101  A    between atoms: _258  and  _259
REMARK  102  A    between atoms: _258  and  _261
REMARK  103  A    between atoms: _261  and  _262
REMARK  104  A    between atoms: _267  and  _268
REMARK  105  A    between atoms: _270  and  _272
REMARK  106  A    between atoms: _272  and  _273
REMARK  107  A    between atoms: _276  and  _278
REMARK  108  A    between atoms: _278  and  _279
REMARK  109  A    between atoms: _278  and  _281
REMARK  110  A    between atoms: _281  and  _282
REMARK  111  A    between atoms: _286  and  _287
REMARK  112  A    between atoms: _292  and  _294
REMARK  113  A    between atoms: _294  and  _295
REMARK  114  A    between atoms: _294  and  _297
REMARK  115  A    between atoms: _297  and  _298
REMARK  116  A    between atoms: _301  and  _303
REMARK  117  A    between atoms: _303  and  _304
REMARK  118  A    between atoms: _303  and  _306
REMARK  119  A    between atoms: _306  and  _307
REMARK  120  A    between atoms: _307  and  _308
REMARK  121  A    between atoms: _313  and  _315
REMARK  122  A    between atoms: _315  and  _316
REMARK  123  A    between atoms: _315  and  _318
REMARK  124  A    between atoms: _318  and  _319
REMARK  125  A    between atoms: _322  and  _324
REMARK  126  A    between atoms: _324  and  _325
REMARK  127  A    between atoms: _324  and  _327
REMARK  128  A    between atoms: _327  and  _328
REMARK  129  A    between atoms: _331  and  _333
REMARK  130  A    between atoms: _333  and  _334
REMARK  131  A    between atoms: _333  and  _336
REMARK  132  A    between atoms: _336  and  _337
REMARK  133  A    between atoms: _343  and  _345
REMARK  134  A    between atoms: _345  and  _346
REMARK  135  A    between atoms: _348  and  _350
REMARK  136  A    between atoms: _350  and  _351
REMARK  137  A    between atoms: _350  and  _353
REMARK  138  A    between atoms: _353  and  _354
REMARK  139  A    between atoms: _357  and  _359
REMARK  140  A    between atoms: _359  and  _360
REMARK  141  A    between atoms: _363  and  _365
REMARK  142  A    between atoms: _365  and  _366
REMARK  143  A    between atoms: _365  and  _368
REMARK  144  A    between atoms: _368  and  _369
REMARK  145  A    between atoms: _379  and  _381
REMARK  146  A    between atoms: _381  and  _382
REMARK  147  A    between atoms: _381  and  _384
REMARK  148  A    between atoms: _384  and  _385
REMARK  149  A    between atoms: _387  and  _389
REMARK  150  A    between atoms: _389  and  _390
REMARK  151  A    between atoms: _389  and  _392
REMARK  152  A    between atoms: _392  and  _393
REMARK  153  A    between atoms: _398  and  _399
REMARK  154  A    between atoms: _401  and  _403
REMARK  155  A    between atoms: _403  and  _404
REMARK  156  A    between atoms: _403  and  _406
REMARK  157  A    between atoms: _406  and  _407
REMARK  158  A    between atoms: _412  and  _413
REMARK  159  A    between atoms: _415  and  _417
REMARK  160  A    between atoms: _417  and  _418
REMARK  161  A    between atoms: _417  and  _420
REMARK  162  A    between atoms: _420  and  _421
REMARK  163  A    between atoms: _424  and  _426
REMARK  164  A    between atoms: _426  and  _427
REMARK  165  A    between atoms: _429  and  _431
REMARK  166  A    between atoms: _431  and  _432
REMARK  167  A    between atoms: _431  and  _434
REMARK  168  A    between atoms: _434  and  _435
REMARK  169  A    between atoms: _440  and  _441
REMARK  170  A    between atoms: _443  and  _445
REMARK  171  A    between atoms: _445  and  _446
REMARK  172  A    between atoms: _445  and  _448
REMARK  173  A    between atoms: _448  and  _449
REMARK  174  A    between atoms: _452  and  _454
REMARK  175  A    between atoms: _454  and  _455
REMARK  176  A    between atoms: _454  and  _457
REMARK  177  A    between atoms: _457  and  _458
REMARK  178  A    between atoms: _458  and  _459
REMARK  179  A    between atoms: _459  and  _460
REMARK  180  A    between atoms: _469  and  _471
REMARK  181  A    between atoms: _471  and  _472
REMARK  182  A    between atoms: _471  and  _474
REMARK  183  A    between atoms: _474  and  _475
REMARK  184  A    between atoms: _478  and  _480
REMARK  185  A    between atoms: _480  and  _481
REMARK  186  A    between atoms: _480  and  _483
REMARK  187  A    between atoms: _483  and  _484
REMARK  188  A    between atoms: _487  and  _489
REMARK  189  A    between atoms: _489  and  _490
REMARK  190  A    between atoms: _489  and  _492
REMARK  191  A    between atoms: _492  and  _493
REMARK  192  A    between atoms: _496  and  _498
REMARK  193  A    between atoms: _498  and  _499
REMARK  194  A    between atoms: _498  and  _501
REMARK  195  A    between atoms: _501  and  _502
REMARK  196  A    between atoms: _505  and  _507
REMARK  197  A    between atoms: _507  and  _508
REMARK  198  A    between atoms: _507  and  _510
REMARK  199  A    between atoms: _510  and  _511
REMARK  200  A    between atoms: _511  and  _512
REMARK  201  A    between atoms: _517  and  _519
REMARK  202  A    between atoms: _519  and  _520
REMARK  203  A    between atoms: _519  and  _522
REMARK  204  A    between atoms: _522  and  _523
REMARK  205  A    between atoms: _528  and  _530
REMARK  206  A    between atoms: _530  and  _531
REMARK  207  A    between atoms: _534  and  _536
REMARK  208  A    between atoms: _536  and  _537
REMARK  209  A    between atoms: _536  and  _539
REMARK  210  A    between atoms: _539  and  _540
REMARK  211  A    between atoms: _543  and  _545
REMARK  212  A    between atoms: _545  and  _546
REMARK  213  A    between atoms: _545  and  _548
REMARK  214  A    between atoms: _548  and  _549
REMARK  215  A    between atoms: _549  and  _550
REMARK  216  A    between atoms: _550  and  _551
REMARK  217  A    between atoms: _560  and  _562
REMARK  218  A    between atoms: _562  and  _563
REMARK  219  A    between atoms: _562  and  _565
REMARK  220  A    between atoms: _568  and  _570
REMARK  221  A    between atoms: _570  and  _571
REMARK  222  A    between atoms: _570  and  _573
REMARK  223  A    between atoms: _573  and  _574
REMARK  224  A    between atoms: _579  and  _580
REMARK  225  A    between atoms: _582  and  _584
REMARK  226  A    between atoms: _584  and  _585
REMARK  227  A    between atoms: _584  and  _587
REMARK  228  A    between atoms: _587  and  _588
REMARK  229  A    between atoms: _590  and  _592
REMARK  230  A    between atoms: _592  and  _593
REMARK  231  A    between atoms: _592  and  _595
REMARK  232  A    between atoms: _595  and  _596
REMARK  233  A    between atoms: _601  and  _603
REMARK  234  A    between atoms: _603  and  _604
REMARK  235  A    between atoms: _603  and  _606
REMARK  236  A    between atoms: _606  and  _607
REMARK  237  A    between atoms: _609  and  _611
REMARK  238  A    between atoms: _611  and  _612
REMARK  239  A    between atoms: _611  and  _614
REMARK  240  A    between atoms: _614  and  _615
REMARK  241  A    between atoms: _615  and  _616
REMARK  242  A    between atoms: _619  and  _621
REMARK  243  A    between atoms: _621  and  _622
REMARK  244  A    between atoms: _621  and  _624
REMARK  245  A    between atoms: _624  and  _625
REMARK  246  A    between atoms: _630  and  _631
REMARK  247  A    between atoms: _633  and  _635
REMARK  248  A    between atoms: _635  and  _636
REMARK  249  A    between atoms: _639  and  _641
REMARK  250  A    between atoms: _641  and  _642
REMARK  251  A    between atoms: _641  and  _644
REMARK  252  A    between atoms: _644  and  _645
REMARK  253  A    between atoms: _649  and  _650
REMARK  254  A    between atoms: _655  and  _657
REMARK  255  A    between atoms: _657  and  _658
REMARK  256  A    between atoms: _657  and  _660
REMARK  257  A    between atoms: _660  and  _661
REMARK  258  A    between atoms: _664  and  _666
REMARK  259  A    between atoms: _666  and  _667
REMARK  260  A    between atoms: _666  and  _669
REMARK  261  A    between atoms: _669  and  _670
REMARK  262  A    between atoms: _670  and  _671
REMARK  263  A    between atoms: _676  and  _678
REMARK  264  A    between atoms: _678  and  _679
REMARK  265  A    between atoms: _678  and  _681
REMARK  266  A    between atoms: _681  and  _682
REMARK  267  A    between atoms: _685  and  _687
REMARK  268  A    between atoms: _687  and  _688
REMARK  269  A    between atoms: _687  and  _690
REMARK  270  A    between atoms: _690  and  _691
REMARK                            x       y       z     vdW  Elec       q    Type
REMARK                         _______ _______ _______ _____ _____    ______ ____
ROOT
ATOM      1  CA  HIS A   1      44.786  24.025  22.582  0.00  0.00    +0.151 C 
ENDROOT
BRANCH   1   2
ATOM      2  C   HIS A   1      43.801  23.219  21.710  0.00  0.00    +0.239 C 
ATOM      3  N   ALA A   2      42.627  22.884  22.281  0.00  0.00    -0.298 N 
ATOM      4  H   ALA A   2      42.493  23.052  23.299  0.00  0.00    +0.150 HD
ATOM      5  O   HIS A   1      44.118  22.866  20.535  0.00  0.00    -0.274 OA
BRANCH   3   6
ATOM      6  CA  ALA A   2      41.537  22.291  21.509  0.00  0.00    +0.137 C 
ATOM      7  CB  ALA A   2      41.059  23.287  20.484  0.00  0.00    +0.030 C 
BRANCH   6   8
ATOM      8  C   ALA A   2      41.903  20.956  20.806  0.00  0.00    +0.227 C 
ATOM      9  O   ALA A   2      41.423  20.625  19.662  0.00  0.00    -0.286 OA
ENDBRANCH   6   8
ENDBRANCH   3   6
ENDBRANCH   1   2
BRANCH   1  10
ATOM     10  N   HIS A   1      46.078  23.321  22.688  0.00  0.00    -0.238 NA
ATOM     11  H   HIS A   1      46.416  22.753  21.885  0.00  0.00    +0.142 HD
ENDBRANCH   1  10
BRANCH   1  12
ATOM     12  CB  HIS A   1      45.005  25.425  21.993  0.00  0.00    +0.074 C 
BRANCH  12  13
ATOM     13  CG  HIS A   1      45.840  26.319  22.862  0.00  0.00    +0.082 A 
ATOM     14  ND1 HIS A   1      45.299  27.070  23.882  0.00  0.00    -0.227 NA
ATOM     15  CE1 HIS A   1      46.266  27.734  24.500  0.00  0.00    +0.199 A 
ATOM     16  NE2 HIS A   1      47.413  27.452  23.907  0.00  0.00    -0.221 NA
ATOM     17  CD2 HIS A   1      47.177  26.565  22.881  0.00  0.00    +0.115 A 
ENDBRANCH  12  13
ENDBRANCH   1  12
TORSDOF 6
REMARK  Name = ../refined-set-2016/4loi/4loi_pocket.pdb
REMARK  270 active torsions:
REMARK  status: ('A' for Active; 'I' for Inactive)
REMARK    1  A    between atoms: _1  and  _3
REMARK    2  A    between atoms: _3  and  _4
REMARK    3  A    between atoms: _6  and  _8
REMARK    4  A    between atoms: _8  and  _9
REMARK    5  A    between atoms: _8  and  _11
REMARK    6  A    between atoms: _11  and  _12
REMARK    7  A    between atoms: _15  and  _17
REMARK    8  A    between atoms: _17  and  _18
REMARK    9  A    between atoms: _21  and  _23
REMARK   10  A    between atoms: _23  and  _24
REMARK   11  A    between atoms: _23  and  _26
REMARK   12  A    between atoms: _26  and  _27
REMARK   13  A    between atoms: _37  and  _39
REMARK   14  A    between atoms: _39  and  _40
REMARK   15  A    between atoms: _39  and  _42
REMARK   16  A    between atoms: _42  and  _43
REMARK   17  A    between atoms: _45  and  _47
REMARK   18  A    between atoms: _47  and  _48
REMARK   19  A    between atoms: _47  and  _50
REMARK   20  A    between atoms: _50  and  _51
REMARK   21  A    between atoms: _56  and  _57
REMARK   22  A    between atoms: _59  and  _61
REMARK   23  A    between atoms: _61  and  _62
REMARK   24  A    between atoms: _61  and  _64
REMARK   25  A    between atoms: _64  and  _65
REMARK   26  A    between atoms: _70  and  _71
REMARK   27  A    between atoms: _73  and  _75
REMARK   28  A    between atoms: _75  and  _76
REMARK   29  A    between atoms: _75  and  _78
REMARK   30  A    between atoms: _78  and  _79
REMARK   31  A    between atoms: _82  and  _84
REMARK   32  A    between atoms: _84  and  _85
REMARK   33  A    between atoms: _87  and  _89
REMARK   34  A    between atoms: _89  and  _90
REMARK   35  A    between atoms: _89  and  _92
REMARK   36  A    between atoms: _92  and  _93
REMARK   37  A    between atoms: _98  and  _99
REMARK   38  A    between atoms: _101  and  _103
REMARK   39  A    between atoms: _103  and  _104
REMARK   40  A    between atoms: _103  and  _106
REMARK   41  A    between atoms: _106  and  _107
REMARK   42  A    between atoms: _110  and  _112
REMARK   43  A    between atoms: _112  and  _113
REMARK   44  A    between atoms: _112  and  _115
REMARK   45  A    between atoms: _115  and  _116
REMARK   46  A    between atoms: _116  and  _117
REMARK   47  A    between atoms: _117  and  _118
REMARK   48  A    between atoms: _127  and  _129
REMARK   49  A    between atoms: _129  and  _130
REMARK   50  A    between atoms: _129  and  _132
REMARK   51  A    between atoms: _132  and  _133
REMARK   52  A    between atoms: _136  and  _138
REMARK   53  A    between atoms: _138  and  _139
REMARK   54  A    between atoms: _138  and  _141
REMARK   55  A    between atoms: _141  and  _142
REMARK   56  A    between atoms: _145  and  _147
REMARK   57  A    between atoms: _147  and  _148
REMARK   58  A    between atoms: _147  and  _150
REMARK   59  A    between atoms: _150  and  _151
REMARK   60  A    between atoms: _151  and  _152
REMARK   61  A    between atoms: _157  and  _159
REMARK   62  A    between atoms: _159  and  _160
REMARK   63  A    between atoms: _159  and  _162
REMARK   64  A    between atoms: _162  and  _163
REMARK   65  A    between atoms: _168  and  _170
REMARK   66  A    between atoms: _170  and  _171
REMARK   67  A    between atoms: _174  and  _176
REMARK   68  A    between atoms: _176  and  _177
REMARK   69  A    between atoms: _179  and  _181
REMARK   70  A    between atoms: _181  and  _182
REMARK   71  A    between atoms: _181  and  _184
REMARK   72  A    between atoms: _184  and  _185
REMARK   73  A    between atoms: _188  and  _190
REMARK   74  A    between atoms: _190  and  _191
REMARK   75  A    between atoms: _190  and  _193
REMARK   76  A    between atoms: _193  and  _194
REMARK   77  A    between atoms: _194  and  _195
REMARK   78  A    between atoms: _195  and  _196
REMARK   79  A    between atoms: _205  and  _207
REMARK   80  A    between atoms: _207  and  _208
REMARK   81  A    between atoms: _207  and  _210
REMARK   82  A    between atoms: _213  and  _215
REMARK   83  A    between atoms: _215  and  _216
REMARK   84  A    between atoms: _215  and  _218
REMARK   85  A    between atoms: _218  and  _219
REMARK   86  A    between atoms: _224  and  _225
REMARK   87  A    between atoms: _227  and  _229
REMARK   88  A    between atoms: _229  and  _230
REMARK   89  A    between atoms: _229  and  _232
REMARK   90  A    between atoms: _232  and  _233
REMARK   91  A    between atoms: _235  and  _237
REMARK   92  A    between atoms: _237  and  _238
REMARK   93  A    between atoms: _237  and  _240
REMARK   94  A    between atoms: _240  and  _241
REMARK   95  A    between atoms: _246  and  _248
REMARK   96  A    between atoms: _248  and  _249
REMARK   97  A    between atoms: _248  and  _251
REMARK   98  A    between atoms: _251  and  _252
REMARK   99  A    between atoms: _252  and  _253
REMARK  100  A    between atoms: _256  and  _258
REMARK  101  A    between atoms: _258  and  _259
REMARK  102  A    between atoms: _258  and  _261
REMARK  103  A    between atoms: _261  and  _262
REMARK  104  A    between atoms: _267  and  _268
REMARK  105  A    between atoms: _270  and  _272
REMARK  106  A    between atoms: _272  and  _273
REMARK  107  A    between atoms: _276  and  _278
REMARK  108  A    between atoms: _278  and  _279
REMARK  109  A    between atoms: _278  and  _281
REMARK  110  A    between atoms: _281  and  _282
REMARK  111  A    between atoms: _286  and  _287
REMARK  112  A    between atoms: _292  and  _294
REMARK  113  A    between atoms: _294  and  _295
REMARK  114  A    between atoms: _294  and  _297
REMARK  115  A    between atoms: _297  and  _298
REMARK  116  A    between atoms: _301  and  _303
REMARK  117  A    between atoms: _303  and  _304
REMARK  118  A    between atoms: _303  and  _306
REMARK  119  A    between atoms: _306  and  _307
REMARK  120  A    between atoms: _307  and  _308
REMARK  121  A    between atoms: _313  and  _315
REMARK  122  A    between atoms: _315  and  _316
REMARK  123  A    between atoms: _315  and  _318
REMARK  124  A    between atoms: _318  and  _319
REMARK  125  A    between atoms: _322  and  _324
REMARK  126  A    between atoms: _324  and  _325
REMARK  127  A    between atoms: _324  and  _327
REMARK  128  A    between atoms: _327  and  _328
REMARK  129  A    between atoms: _331  and  _333
REMARK  130  A    between atoms: _333  and  _334
REMARK  131  A    between atoms: _333  and  _336
REMARK  132  A    between atoms: _336  and  _337
REMARK  133  A    between atoms: _343  and  _345
REMARK  134  A    between atoms: _345  and  _346
REMARK  135  A    between atoms: _348  and  _350
REMARK  136  A    between atoms: _350  and  _351
REMARK  137  A    between atoms: _350  and  _353
REMARK  138  A    between atoms: _353  and  _354
REMARK  139  A    between atoms: _357  and  _359
REMARK  140  A    between atoms: _359  and  _360
REMARK  141  A    between atoms: _363  and  _365
REMARK  142  A    between atoms: _365  and  _366
REMARK  143  A    between atoms: _365  and  _368
REMARK  144  A    between atoms: _368  and  _369
REMARK  145  A    between atoms: _379  and  _381
REMARK  146  A    between atoms: _381  and  _382
REMARK  147  A    between atoms: _381  and  _384
REMARK  148  A    between atoms: _384  and  _385
REMARK  149  A    between atoms: _387  and  _389
REMARK  150  A    between atoms: _389  and  _390
REMARK  151  A    between atoms: _389  and  _392
REMARK  152  A    between atoms: _392  and  _393
REMARK  153  A    between atoms: _398  and  _399
REMARK  154  A    between atoms: _401  and  _403
REMARK  155  A    between atoms: _403  and  _404
REMARK  156  A    between atoms: _403  and  _406
REMARK  157  A    between atoms: _406  and  _407
REMARK  158  A    between atoms: _412  and  _413
REMARK  159  A    between atoms: _415  and  _417
REMARK  160  A    between atoms: _417  and  _418
REMARK  161  A    between atoms: _417  and  _420
REMARK  162  A    between atoms: _420  and  _421
REMARK  163  A    between atoms: _424  and  _426
REMARK  164  A    between atoms: _426  and  _427
REMARK  165  A    between atoms: _429  and  _431
REMARK  166  A    between atoms: _431  and  _432
REMARK  167  A    between atoms: _431  and  _434
REMARK  168  A    between atoms: _434  and  _435
REMARK  169  A    between atoms: _440  and  _441
REMARK  170  A    between atoms: _443  and  _445
REMARK  171  A    between atoms: _445  and  _446
REMARK  172  A    between atoms: _445  and  _448
REMARK  173  A    between atoms: _448  and  _449
REMARK  174  A    between atoms: _452  and  _454
REMARK  175  A    between atoms: _454  and  _455
REMARK  176  A    between atoms: _454  and  _457
REMARK  177  A    between atoms: _457  and  _458
REMARK  178  A    between atoms: _458  and  _459
REMARK  179  A    between atoms: _459  and  _460
REMARK  180  A    between atoms: _469  and  _471
REMARK  181  A    between atoms: _471  and  _472
REMARK  182  A    between atoms: _471  and  _474
REMARK  183  A    between atoms: _474  and  _475
REMARK  184  A    between atoms: _478  and  _480
REMARK  185  A    between atoms: _480  and  _481
REMARK  186  A    between atoms: _480  and  _483
REMARK  187  A    between atoms: _483  and  _484
REMARK  188  A    between atoms: _487  and  _489
REMARK  189  A    between atoms: _489  and  _490
REMARK  190  A    between atoms: _489  and  _492
REMARK  191  A    between atoms: _492  and  _493
REMARK  192  A    between atoms: _496  and  _498
REMARK  193  A    between atoms: _498  and  _499
REMARK  194  A    between atoms: _498  and  _501
REMARK  195  A    between atoms: _501  and  _502
REMARK  196  A    between atoms: _505  and  _507
REMARK  197  A    between atoms: _507  and  _508
REMARK  198  A    between atoms: _507  and  _510
REMARK  199  A    between atoms: _510  and  _511
REMARK  200  A    between atoms: _511  and  _512
REMARK  201  A    between atoms: _517  and  _519
REMARK  202  A    between atoms: _519  and  _520
REMARK  203  A    between atoms: _519  and  _522
REMARK  204  A    between atoms: _522  and  _523
REMARK  205  A    between atoms: _528  and  _530
REMARK  206  A    between atoms: _530  and  _531
REMARK  207  A    between atoms: _534  and  _536
REMARK  208  A    between atoms: _536  and  _537
REMARK  209  A    between atoms: _536  and  _539
REMARK  210  A    between atoms: _539  and  _540
REMARK  211  A    between atoms: _543  and  _545
REMARK  212  A    between atoms: _545  and  _546
REMARK  213  A    between atoms: _545  and  _548
REMARK  214  A    between atoms: _548  and  _549
REMARK  215  A    between atoms: _549  and  _550
REMARK  216  A    between atoms: _550  and  _551
REMARK  217  A    between atoms: _560  and  _562
REMARK  218  A    between atoms: _562  and  _563
REMARK  219  A    between atoms: _562  and  _565
REMARK  220  A    between atoms: _568  and  _570
REMARK  221  A    between atoms: _570  and  _571
REMARK  222  A    between atoms: _570  and  _573
REMARK  223  A    between atoms: _573  and  _574
REMARK  224  A    between atoms: _579  and  _580
REMARK  225  A    between atoms: _582  and  _584
REMARK  226  A    between atoms: _584  and  _585
REMARK  227  A    between atoms: _584  and  _587
REMARK  228  A    between atoms: _587  and  _588
REMARK  229  A    between atoms: _590  and  _592
REMARK  230  A    between atoms: _592  and  _593
REMARK  231  A    between atoms: _592  and  _595
REMARK  232  A    between atoms: _595  and  _596
REMARK  233  A    between atoms: _601  and  _603
REMARK  234  A    between atoms: _603  and  _604
REMARK  235  A    between atoms: _603  and  _606
REMARK  236  A    between atoms: _606  and  _607
REMARK  237  A    between atoms: _609  and  _611
REMARK  238  A    between atoms: _611  and  _612
REMARK  239  A    between atoms: _611  and  _614
REMARK  240  A    between atoms: _614  and  _615
REMARK  241  A    between atoms: _615  and  _616
REMARK  242  A    between atoms: _619  and  _621
REMARK  243  A    between atoms: _621  and  _622
REMARK  244  A    between atoms: _621  and  _624
REMARK  245  A    between atoms: _624  and  _625
REMARK  246  A    between atoms: _630  and  _631
REMARK  247  A    between atoms: _633  and  _635
REMARK  248  A    between atoms: _635  and  _636
REMARK  249  A    between atoms: _639  and  _641
REMARK  250  A    between atoms: _641  and  _642
REMARK  251  A    between atoms: _641  and  _644
REMARK  252  A    between atoms: _644  and  _645
REMARK  253  A    between atoms: _649  and  _650
REMARK  254  A    between atoms: _655  and  _657
REMARK  255  A    between atoms: _657  and  _658
REMARK  256  A    between atoms: _657  and  _660
REMARK  257  A    between atoms: _660  and  _661
REMARK  258  A    between atoms: _664  and  _666
REMARK  259  A    between atoms: _666  and  _667
REMARK  260  A    between atoms: _666  and  _669
REMARK  261  A    between atoms: _669  and  _670
REMARK  262  A    between atoms: _670  and  _671
REMARK  263  A    between atoms: _676  and  _678
REMARK  264  A    between atoms: _678  and  _679
REMARK  265  A    between atoms: _678  and  _681
REMARK  266  A    between atoms: _681  and  _682
REMARK  267  A    between atoms: _685  and  _687
REMARK  268  A    between atoms: _687  and  _688
REMARK  269  A    between atoms: _687  and  _690
REMARK  270  A    between atoms: _690  and  _691
REMARK                            x       y       z     vdW  Elec       q    Type
REMARK                         _______ _______ _______ _____ _____    ______ ____
ROOT
ATOM      1  CA  ILE A   1      46.099  20.535  18.949  0.00  0.00    +0.133 C 
ENDROOT
BRANCH   1   2
ATOM      2  N   ILE A   1      44.902  20.320  19.774  0.00  0.00    -0.239 NA
ATOM      3  H   ILE A   1      44.452  21.132  20.242  0.00  0.00    +0.142 HD
ENDBRANCH   1   2
BRANCH   1   4
ATOM      4  C   ILE A   1      47.282  20.595  19.904  0.00  0.00    +0.224 C 
ATOM      5  O   ILE A   1      47.451  21.546  20.683  0.00  0.00    -0.287 OA
ENDBRANCH   1   4
BRANCH   1   6
ATOM      6  CB  ILE A   1      46.011  21.799  18.029  0.00  0.00    +0.023 C 
ATOM      7  CG2 ILE A   1      47.376  22.196  17.469  0.00  0.00    +0.002 C 
BRANCH   6   8
ATOM      8  CG1 ILE A   1      45.072  21.516  16.831  0.00  0.00    +0.002 C 
ATOM      9  CD1 ILE A   1      43.822  22.349  16.893  0.00  0.00    +0.000 C 
ENDBRANCH   6   8
ENDBRANCH   1   6
TORSDOF 4
REMARK  Name = ../refined-set-2016/4loi/4loi_pocket.pdb
REMARK  270 active torsions:
REMARK  status: ('A' for Active; 'I' for Inactive)
REMARK    1  A    between atoms: _1  and  _3
REMARK    2  A    between atoms: _3  and  _4
REMARK    3  A    between atoms: _6  and  _8
REMARK    4  A    between atoms: _8  and  _9
REMARK    5  A    between atoms: _8  and  _11
REMARK    6  A    between atoms: _11  and  _12
REMARK    7  A    between atoms: _15  and  _17
REMARK    8  A    between atoms: _17  and  _18
REMARK    9  A    between atoms: _21  and  _23
REMARK   10  A    between atoms: _23  and  _24
REMARK   11  A    between atoms: _23  and  _26
REMARK   12  A    between atoms: _26  and  _27
REMARK   13  A    between atoms: _37  and  _39
REMARK   14  A    between atoms: _39  and  _40
REMARK   15  A    between atoms: _39  and  _42
REMARK   16  A    between atoms: _42  and  _43
REMARK   17  A    between atoms: _45  and  _47
REMARK   18  A    between atoms: _47  and  _48
REMARK   19  A    between atoms: _47  and  _50
REMARK   20  A    between atoms: _50  and  _51
REMARK   21  A    between atoms: _56  and  _57
REMARK   22  A    between atoms: _59  and  _61
REMARK   23  A    between atoms: _61  and  _62
REMARK   24  A    between atoms: _61  and  _64
REMARK   25  A    between atoms: _64  and  _65
REMARK   26  A    between atoms: _70  and  _71
REMARK   27  A    between atoms: _73  and  _75
REMARK   28  A    between atoms: _75  and  _76
REMARK   29  A    between atoms: _75  and  _78
REMARK   30  A    between atoms: _78  and  _79
REMARK   31  A    between atoms: _82  and  _84
REMARK   32  A    between atoms: _84  and  _85
REMARK   33  A    between atoms: _87  and  _89
REMARK   34  A    between atoms: _89  and  _90
REMARK   35  A    between atoms: _89  and  _92
REMARK   36  A    between atoms: _92  and  _93
REMARK   37  A    between atoms: _98  and  _99
REMARK   38  A    between atoms: _101  and  _103
REMARK   39  A    between atoms: _103  and  _104
REMARK   40  A    between atoms: _103  and  _106
REMARK   41  A    between atoms: _106  and  _107
REMARK   42  A    between atoms: _110  and  _112
REMARK   43  A    between atoms: _112  and  _113
REMARK   44  A    between atoms: _112  and  _115
REMARK   45  A    between atoms: _115  and  _116
REMARK   46  A    between atoms: _116  and  _117
REMARK   47  A    between atoms: _117  and  _118
REMARK   48  A    between atoms: _127  and  _129
REMARK   49  A    between atoms: _129  and  _130
REMARK   50  A    between atoms: _129  and  _132
REMARK   51  A    between atoms: _132  and  _133
REMARK   52  A    between atoms: _136  and  _138
REMARK   53  A    between atoms: _138  and  _139
REMARK   54  A    between atoms: _138  and  _141
REMARK   55  A    between atoms: _141  and  _142
REMARK   56  A    between atoms: _145  and  _147
REMARK   57  A    between atoms: _147  and  _148
REMARK   58  A    between atoms: _147  and  _150
REMARK   59  A    between atoms: _150  and  _151
REMARK   60  A    between atoms: _151  and  _152
REMARK   61  A    between atoms: _157  and  _159
REMARK   62  A    between atoms: _159  and  _160
REMARK   63  A    between atoms: _159  and  _162
REMARK   64  A    between atoms: _162  and  _163
REMARK   65  A    between atoms: _168  and  _170
REMARK   66  A    between atoms: _170  and  _171
REMARK   67  A    between atoms: _174  and  _176
REMARK   68  A    between atoms: _176  and  _177
REMARK   69  A    between atoms: _179  and  _181
REMARK   70  A    between atoms: _181  and  _182
REMARK   71  A    between atoms: _181  and  _184
REMARK   72  A    between atoms: _184  and  _185
REMARK   73  A    between atoms: _188  and  _190
REMARK   74  A    between atoms: _190  and  _191
REMARK   75  A    between atoms: _190  and  _193
REMARK   76  A    between atoms: _193  and  _194
REMARK   77  A    between atoms: _194  and  _195
REMARK   78  A    between atoms: _195  and  _196
REMARK   79  A    between atoms: _205  and  _207
REMARK   80  A    between atoms: _207  and  _208
REMARK   81  A    between atoms: _207  and  _210
REMARK   82  A    between atoms: _213  and  _215
REMARK   83  A    between atoms: _215  and  _216
REMARK   84  A    between atoms: _215  and  _218
REMARK   85  A    between atoms: _218  and  _219
REMARK   86  A    between atoms: _224  and  _225
REMARK   87  A    between atoms: _227  and  _229
REMARK   88  A    between atoms: _229  and  _230
REMARK   89  A    between atoms: _229  and  _232
REMARK   90  A    between atoms: _232  and  _233
REMARK   91  A    between atoms: _235  and  _237
REMARK   92  A    between atoms: _237  and  _238
REMARK   93  A    between atoms: _237  and  _240
REMARK   94  A    between atoms: _240  and  _241
REMARK   95  A    between atoms: _246  and  _248
REMARK   96  A    between atoms: _248  and  _249
REMARK   97  A    between atoms: _248  and  _251
REMARK   98  A    between atoms: _251  and  _252
REMARK   99  A    between atoms: _252  and  _253
REMARK  100  A    between atoms: _256  and  _258
REMARK  101  A    between atoms: _258  and  _259
REMARK  102  A    between atoms: _258  and  _261
REMARK  103  A    between atoms: _261  and  _262
REMARK  104  A    between atoms: _267  and  _268
REMARK  105  A    between atoms: _270  and  _272
REMARK  106  A    between atoms: _272  and  _273
REMARK  107  A    between atoms: _276  and  _278
REMARK  108  A    between atoms: _278  and  _279
REMARK  109  A    between atoms: _278  and  _281
REMARK  110  A    between atoms: _281  and  _282
REMARK  111  A    between atoms: _286  and  _287
REMARK  112  A    between atoms: _292  and  _294
REMARK  113  A    between atoms: _294  and  _295
REMARK  114  A    between atoms: _294  and  _297
REMARK  115  A    between atoms: _297  and  _298
REMARK  116  A    between atoms: _301  and  _303
REMARK  117  A    between atoms: _303  and  _304
REMARK  118  A    between atoms: _303  and  _306
REMARK  119  A    between atoms: _306  and  _307
REMARK  120  A    between atoms: _307  and  _308
REMARK  121  A    between atoms: _313  and  _315
REMARK  122  A    between atoms: _315  and  _316
REMARK  123  A    between atoms: _315  and  _318
REMARK  124  A    between atoms: _318  and  _319
REMARK  125  A    between atoms: _322  and  _324
REMARK  126  A    between atoms: _324  and  _325
REMARK  127  A    between atoms: _324  and  _327
REMARK  128  A    between atoms: _327  and  _328
REMARK  129  A    between atoms: _331  and  _333
REMARK  130  A    between atoms: _333  and  _334
REMARK  131  A    between atoms: _333  and  _336
REMARK  132  A    between atoms: _336  and  _337
REMARK  133  A    between atoms: _343  and  _345
REMARK  134  A    between atoms: _345  and  _346
REMARK  135  A    between atoms: _348  and  _350
REMARK  136  A    between atoms: _350  and  _351
REMARK  137  A    between atoms: _350  and  _353
REMARK  138  A    between atoms: _353  and  _354
REMARK  139  A    between atoms: _357  and  _359
REMARK  140  A    between atoms: _359  and  _360
REMARK  141  A    between atoms: _363  and  _365
REMARK  142  A    between atoms: _365  and  _366
REMARK  143  A    between atoms: _365  and  _368
REMARK  144  A    between atoms: _368  and  _369
REMARK  145  A    between atoms: _379  and  _381
REMARK  146  A    between atoms: _381  and  _382
REMARK  147  A    between atoms: _381  and  _384
REMARK  148  A    between atoms: _384  and  _385
REMARK  149  A    between atoms: _387  and  _389
REMARK  150  A    between atoms: _389  and  _390
REMARK  151  A    between atoms: _389  and  _392
REMARK  152  A    between atoms: _392  and  _393
REMARK  153  A    between atoms: _398  and  _399
REMARK  154  A    between atoms: _401  and  _403
REMARK  155  A    between atoms: _403  and  _404
REMARK  156  A    between atoms: _403  and  _406
REMARK  157  A    between atoms: _406  and  _407
REMARK  158  A    between atoms: _412  and  _413
REMARK  159  A    between atoms: _415  and  _417
REMARK  160  A    between atoms: _417  and  _418
REMARK  161  A    between atoms: _417  and  _420
REMARK  162  A    between atoms: _420  and  _421
REMARK  163  A    between atoms: _424  and  _426
REMARK  164  A    between atoms: _426  and  _427
REMARK  165  A    between atoms: _429  and  _431
REMARK  166  A    between atoms: _431  and  _432
REMARK  167  A    between atoms: _431  and  _434
REMARK  168  A    between atoms: _434  and  _435
REMARK  169  A    between atoms: _440  and  _441
REMARK  170  A    between atoms: _443  and  _445
REMARK  171  A    between atoms: _445  and  _446
REMARK  172  A    between atoms: _445  and  _448
REMARK  173  A    between atoms: _448  and  _449
REMARK  174  A    between atoms: _452  and  _454
REMARK  175  A    between atoms: _454  and  _455
REMARK  176  A    between atoms: _454  and  _457
REMARK  177  A    between atoms: _457  and  _458
REMARK  178  A    between atoms: _458  and  _459
REMARK  179  A    between atoms: _459  and  _460
REMARK  180  A    between atoms: _469  and  _471
REMARK  181  A    between atoms: _471  and  _472
REMARK  182  A    between atoms: _471  and  _474
REMARK  183  A    between atoms: _474  and  _475
REMARK  184  A    between atoms: _478  and  _480
REMARK  185  A    between atoms: _480  and  _481
REMARK  186  A    between atoms: _480  and  _483
REMARK  187  A    between atoms: _483  and  _484
REMARK  188  A    between atoms: _487  and  _489
REMARK  189  A    between atoms: _489  and  _490
REMARK  190  A    between atoms: _489  and  _492
REMARK  191  A    between atoms: _492  and  _493
REMARK  192  A    between atoms: _496  and  _498
REMARK  193  A    between atoms: _498  and  _499
REMARK  194  A    between atoms: _498  and  _501
REMARK  195  A    between atoms: _501  and  _502
REMARK  196  A    between atoms: _505  and  _507
REMARK  197  A    between atoms: _507  and  _508
REMARK  198  A    between atoms: _507  and  _510
REMARK  199  A    between atoms: _510  and  _511
REMARK  200  A    between atoms: _511  and  _512
REMARK  201  A    between atoms: _517  and  _519
REMARK  202  A    between atoms: _519  and  _520
REMARK  203  A    between atoms: _519  and  _522
REMARK  204  A    between atoms: _522  and  _523
REMARK  205  A    between atoms: _528  and  _530
REMARK  206  A    between atoms: _530  and  _531
REMARK  207  A    between atoms: _534  and  _536
REMARK  208  A    between atoms: _536  and  _537
REMARK  209  A    between atoms: _536  and  _539
REMARK  210  A    between atoms: _539  and  _540
REMARK  211  A    between atoms: _543  and  _545
REMARK  212  A    between atoms: _545  and  _546
REMARK  213  A    between atoms: _545  and  _548
REMARK  214  A    between atoms: _548  and  _549
REMARK  215  A    between atoms: _549  and  _550
REMARK  216  A    between atoms: _550  and  _551
REMARK  217  A    between atoms: _560  and  _562
REMARK  218  A    between atoms: _562  and  _563
REMARK  219  A    between atoms: _562  and  _565
REMARK  220  A    between atoms: _568  and  _570
REMARK  221  A    between atoms: _570  and  _571
REMARK  222  A    between atoms: _570  and  _573
REMARK  223  A    between atoms: _573  and  _574
REMARK  224  A    between atoms: _579  and  _580
REMARK  225  A    between atoms: _582  and  _584
REMARK  226  A    between atoms: _584  and  _585
REMARK  227  A    between atoms: _584  and  _587
REMARK  228  A    between atoms: _587  and  _588
REMARK  229  A    between atoms: _590  and  _592
REMARK  230  A    between atoms: _592  and  _593
REMARK  231  A    between atoms: _592  and  _595
REMARK  232  A    between atoms: _595  and  _596
REMARK  233  A    between atoms: _601  and  _603
REMARK  234  A    between atoms: _603  and  _604
REMARK  235  A    between atoms: _603  and  _606
REMARK  236  A    between atoms: _606  and  _607
REMARK  237  A    between atoms: _609  and  _611
REMARK  238  A    between atoms: _611  and  _612
REMARK  239  A    between atoms: _611  and  _614
REMARK  240  A    between atoms: _614  and  _615
REMARK  241  A    between atoms: _615  and  _616
REMARK  242  A    between atoms: _619  and  _621
REMARK  243  A    between atoms: _621  and  _622
REMARK  244  A    between atoms: _621  and  _624
REMARK  245  A    between atoms: _624  and  _625
REMARK  246  A    between atoms: _630  and  _631
REMARK  247  A    between atoms: _633  and  _635
REMARK  248  A    between atoms: _635  and  _636
REMARK  249  A    between atoms: _639  and  _641
REMARK  250  A    between atoms: _641  and  _642
REMARK  251  A    between atoms: _641  and  _644
REMARK  252  A    between atoms: _644  and  _645
REMARK  253  A    between atoms: _649  and  _650
REMARK  254  A    between atoms: _655  and  _657
REMARK  255  A    between atoms: _657  and  _658
REMARK  256  A    between atoms: _657  and  _660
REMARK  257  A    between atoms: _660  and  _661
REMARK  258  A    between atoms: _664  and  _666
REMARK  259  A    between atoms: _666  and  _667
REMARK  260  A    between atoms: _666  and  _669
REMARK  261  A    between atoms: _669  and  _670
REMARK  262  A    between atoms: _670  and  _671
REMARK  263  A    between atoms: _676  and  _678
REMARK  264  A    between atoms: _678  and  _679
REMARK  265  A    between atoms: _678  and  _681
REMARK  266  A    between atoms: _681  and  _682
REMARK  267  A    between atoms: _685  and  _687
REMARK  268  A    between atoms: _687  and  _688
REMARK  269  A    between atoms: _687  and  _690
REMARK  270  A    between atoms: _690  and  _691
REMARK                            x       y       z     vdW  Elec       q    Type
REMARK                         _______ _______ _______ _____ _____    ______ ____
ROOT
ATOM      1  CA  TYR A   3      52.388  31.318  18.626  0.00  0.00    +0.153 C 
ENDROOT
BRANCH   1   2
ATOM      2  C   TYR A   3      53.759  32.028  18.499  0.00  0.00    +0.241 C 
ATOM      3  O   TYR A   3      54.588  31.952  19.397  0.00  0.00    -0.273 OA
ATOM      4  N   SER A   4      53.950  32.606  17.359  0.00  0.00    -0.295 N 
ATOM      5  H   SER A   4      53.158  32.624  16.685  0.00  0.00    +0.150 HD
BRANCH   4   6
ATOM      6  CA  SER A   4      55.203  33.235  16.954  0.00  0.00    +0.178 C 
BRANCH   6   7
ATOM      7  C   SER A   4      55.003  34.729  16.734  0.00  0.00    +0.243 C 
ATOM      8  N   ASN A   5      56.022  35.529  17.033  0.00  0.00    -0.297 N 
ATOM      9  H   ASN A   5      56.882  35.132  17.462  0.00  0.00    +0.150 HD
ATOM     10  O   SER A   4      53.932  35.166  16.313  0.00  0.00    -0.273 OA
BRANCH   8  11
ATOM     11  CA  ASN A   5      55.940  36.954  16.764  0.00  0.00    +0.158 C 
BRANCH  11  12
ATOM     12  C   ASN A   5      57.263  37.387  16.148  0.00  0.00    +0.241 C 
ATOM     13  O   ASN A   5      58.339  36.816  16.475  0.00  0.00    -0.273 OA
ATOM     14  N   SER A   6      57.183  38.334  15.234  0.00  0.00    -0.296 N 
ATOM     15  H   SER A   6      56.272  38.813  15.084  0.00  0.00    +0.150 HD
BRANCH  14  16
ATOM     16  CA  SER A   6      58.338  38.735  14.421  0.00  0.00    +0.166 C 
BRANCH  16  17
ATOM     17  CB  SER A   6      58.783  40.137  14.843  0.00  0.00    +0.229 C 
ATOM     18  OG  SER A   6      57.937  41.002  15.107  0.00  0.00    -0.286 OA
ENDBRANCH  16  17
BRANCH  16  19
ATOM     19  C   SER A   6      57.950  38.735  12.961  0.00  0.00    +0.165 C 
BRANCH  19  20
ATOM     20  O   SER A   6      57.961  37.418  12.494  0.00  0.00    -0.380 OA
ATOM     21  H   SER A   6      57.314  36.879  13.014  0.00  0.00    +0.211 HD
ENDBRANCH  19  20
ENDBRANCH  16  19
ENDBRANCH  14  16
ENDBRANCH  11  12
BRANCH  11  22
ATOM     22  CB  ASN A   5      55.753  37.693  18.043  0.00  0.00    +0.114 C 
BRANCH  22  23
ATOM     23  CG  ASN A   5      54.438  37.332  18.740  0.00  0.00    +0.222 C 
ATOM     24  OD1 ASN A   5      54.408  36.476  19.609  0.00  0.00    -0.275 OA
ATOM     25  ND2 ASN A   5      53.350  37.897  18.251  0.00  0.00    -0.329 N 
ATOM     26 HD21 ASN A   5      52.414  37.617  18.606  0.00  0.00    +0.145 HD
ATOM     27 HD22 ASN A   5      53.429  38.623  17.510  0.00  0.00    +0.145 HD
ENDBRANCH  22  23
ENDBRANCH  11  22
ENDBRANCH   8  11
ENDBRANCH   6   7
BRANCH   6  28
ATOM     28  CB  SER A   4      55.621  32.607  15.604  0.00  0.00    +0.166 C 
BRANCH  28  29
ATOM     29  OG  SER A   4      56.991  32.854  15.376  0.00  0.00    -0.380 OA
ATOM     30  H   SER A   4      57.524  32.452  16.107  0.00  0.00    +0.211 HD
ENDBRANCH  28  29
ENDBRANCH   6  28
ENDBRANCH   4   6
ENDBRANCH   1   2
BRANCH   1  32
ATOM     31  C   VAL A   2      52.325  28.941  17.951  0.00  0.00    +0.241 C 
ATOM     32  N   TYR A   3      52.695  29.899  18.813  0.00  0.00    -0.297 N 
ATOM     33  H   TYR A   3      53.229  29.619  19.660  0.00  0.00    +0.150 HD
ATOM     34  O   VAL A   2      51.668  29.142  16.928  0.00  0.00    -0.273 OA
BRANCH  31  35
ATOM     35  CA  VAL A   2      52.856  27.549  18.247  0.00  0.00    +0.148 C 
BRANCH  35  38
ATOM     36  C   ARG A   1      51.316  25.963  19.276  0.00  0.00    +0.238 C 
ATOM     37  O   ARG A   1      51.612  26.278  20.421  0.00  0.00    -0.274 OA
ATOM     38  N   VAL A   2      51.805  26.530  18.204  0.00  0.00    -0.297 N 
ATOM     39  H   VAL A   2      51.430  26.244  17.277  0.00  0.00    +0.150 HD
BRANCH  36  40
ATOM     40  CA  ARG A   1      50.265  24.830  19.021  0.00  0.00    +0.145 C 
BRANCH  40  41
ATOM     41  N   ARG A   1      50.539  23.733  19.947  0.00  0.00    -0.238 NA
ATOM     42  H   ARG A   1      49.873  23.491  20.708  0.00  0.00    +0.142 HD
ENDBRANCH  40  41
BRANCH  40  43
ATOM     43  CB  ARG A   1      48.889  25.360  19.222  0.00  0.00    +0.030 C 
BRANCH  43  44
ATOM     44  CG  ARG A   1      48.619  26.562  18.325  0.00  0.00    +0.045 C 
BRANCH  44  45
ATOM     45  CD  ARG A   1      47.127  26.791  18.213  0.00  0.00    +0.174 C 
BRANCH  45  46
ATOM     46  NE  ARG A   1      46.913  28.062  17.515  0.00  0.00    -0.265 N 
ATOM     47  HE  ARG A   1      47.751  28.612  17.238  0.00  0.00    +0.259 HD
ATOM     48  CZ  ARG A   1      45.730  28.552  17.216  0.00  0.00    +0.342 C 
ATOM     49  NH2 ARG A   1      44.633  27.855  17.537  0.00  0.00    -0.292 N 
ATOM     50 HH21 ARG A   1      44.722  26.937  18.017  0.00  0.00    +0.255 HD
ATOM     51 HH22 ARG A   1      43.692  28.232  17.306  0.00  0.00    +0.255 HD
ATOM     52  NH1 ARG A   1      45.639  29.767  16.615  0.00  0.00    -0.292 N 
ATOM     53 HH11 ARG A   1      46.502  30.304  16.394  0.00  0.00    +0.255 HD
ATOM     54 HH12 ARG A   1      44.706  30.160  16.376  0.00  0.00    +0.255 HD
ENDBRANCH  45  46
ENDBRANCH  44  45
ENDBRANCH  43  44
ENDBRANCH  40  43
ENDBRANCH  36  40
ENDBRANCH  35  38
BRANCH  35  55
ATOM     55  CB  VAL A   2      53.958  27.225  17.195  0.00  0.00    +0.027 C 
ATOM     56  CG2 VAL A   2      54.574  25.848  17.479  0.00  0.00    +0.002 C 
ATOM     57  CG1 VAL A   2      55.042  28.277  17.196  0.00  0.00    +0.002 C 
ENDBRANCH  35  55
ENDBRANCH  31  35
ENDBRANCH   1  32
BRANCH   1  58
ATOM     58  CB  TYR A   3      51.633  31.905  19.785  0.00  0.00    +0.055 C 
BRANCH  58  59
ATOM     59  CG  TYR A   3      50.338  31.209  19.999  0.00  0.00    -0.020 A 
ATOM     60  CD2 TYR A   3      50.279  30.044  20.798  0.00  0.00    -0.001 A 
ATOM     61  CE2 TYR A   3      49.081  29.384  21.010  0.00  0.00    +0.036 A 
ATOM     62  CZ  TYR A   3      47.933  29.875  20.445  0.00  0.00    +0.134 A 
ATOM     63  CE1 TYR A   3      47.978  30.997  19.622  0.00  0.00    +0.036 A 
ATOM     64  CD1 TYR A   3      49.159  31.672  19.422  0.00  0.00    -0.001 A 
BRANCH  62  65
ATOM     65  OH  TYR A   3      46.745  29.181  20.645  0.00  0.00    -0.506 OA
ATOM     66  HH  TYR A   3      46.073  29.788  21.045  0.00  0.00    +0.292 HD
ENDBRANCH  62  65
ENDBRANCH  58  59
ENDBRANCH   1  58
TORSDOF 26
REMARK  Name = ../refined-set-2016/4loi/4loi_pocket.pdb
REMARK  270 active torsions:
REMARK  status: ('A' for Active; 'I' for Inactive)
REMARK    1  A    between atoms: _1  and  _3
REMARK    2  A    between atoms: _3  and  _4
REMARK    3  A    between atoms: _6  and  _8
REMARK    4  A    between atoms: _8  and  _9
REMARK    5  A    between atoms: _8  and  _11
REMARK    6  A    between atoms: _11  and  _12
REMARK    7  A    between atoms: _15  and  _17
REMARK    8  A    between atoms: _17  and  _18
REMARK    9  A    between atoms: _21  and  _23
REMARK   10  A    between atoms: _23  and  _24
REMARK   11  A    between atoms: _23  and  _26
REMARK   12  A    between atoms: _26  and  _27
REMARK   13  A    between atoms: _37  and  _39
REMARK   14  A    between atoms: _39  and  _40
REMARK   15  A    between atoms: _39  and  _42
REMARK   16  A    between atoms: _42  and  _43
REMARK   17  A    between atoms: _45  and  _47
REMARK   18  A    between atoms: _47  and  _48
REMARK   19  A    between atoms: _47  and  _50
REMARK   20  A    between atoms: _50  and  _51
REMARK   21  A    between atoms: _56  and  _57
REMARK   22  A    between atoms: _59  and  _61
REMARK   23  A    between atoms: _61  and  _62
REMARK   24  A    between atoms: _61  and  _64
REMARK   25  A    between atoms: _64  and  _65
REMARK   26  A    between atoms: _70  and  _71
REMARK   27  A    between atoms: _73  and  _75
REMARK   28  A    between atoms: _75  and  _76
REMARK   29  A    between atoms: _75  and  _78
REMARK   30  A    between atoms: _78  and  _79
REMARK   31  A    between atoms: _82  and  _84
REMARK   32  A    between atoms: _84  and  _85
REMARK   33  A    between atoms: _87  and  _89
REMARK   34  A    between atoms: _89  and  _90
REMARK   35  A    between atoms: _89  and  _92
REMARK   36  A    between atoms: _92  and  _93
REMARK   37  A    between atoms: _98  and  _99
REMARK   38  A    between atoms: _101  and  _103
REMARK   39  A    between atoms: _103  and  _104
REMARK   40  A    between atoms: _103  and  _106
REMARK   41  A    between atoms: _106  and  _107
REMARK   42  A    between atoms: _110  and  _112
REMARK   43  A    between atoms: _112  and  _113
REMARK   44  A    between atoms: _112  and  _115
REMARK   45  A    between atoms: _115  and  _116
REMARK   46  A    between atoms: _116  and  _117
REMARK   47  A    between atoms: _117  and  _118
REMARK   48  A    between atoms: _127  and  _129
REMARK   49  A    between atoms: _129  and  _130
REMARK   50  A    between atoms: _129  and  _132
REMARK   51  A    between atoms: _132  and  _133
REMARK   52  A    between atoms: _136  and  _138
REMARK   53  A    between atoms: _138  and  _139
REMARK   54  A    between atoms: _138  and  _141
REMARK   55  A    between atoms: _141  and  _142
REMARK   56  A    between atoms: _145  and  _147
REMARK   57  A    between atoms: _147  and  _148
REMARK   58  A    between atoms: _147  and  _150
REMARK   59  A    between atoms: _150  and  _151
REMARK   60  A    between atoms: _151  and  _152
REMARK   61  A    between atoms: _157  and  _159
REMARK   62  A    between atoms: _159  and  _160
REMARK   63  A    between atoms: _159  and  _162
REMARK   64  A    between atoms: _162  and  _163
REMARK   65  A    between atoms: _168  and  _170
REMARK   66  A    between atoms: _170  and  _171
REMARK   67  A    between atoms: _174  and  _176
REMARK   68  A    between atoms: _176  and  _177
REMARK   69  A    between atoms: _179  and  _181
REMARK   70  A    between atoms: _181  and  _182
REMARK   71  A    between atoms: _181  and  _184
REMARK   72  A    between atoms: _184  and  _185
REMARK   73  A    between atoms: _188  and  _190
REMARK   74  A    between atoms: _190  and  _191
REMARK   75  A    between atoms: _190  and  _193
REMARK   76  A    between atoms: _193  and  _194
REMARK   77  A    between atoms: _194  and  _195
REMARK   78  A    between atoms: _195  and  _196
REMARK   79  A    between atoms: _205  and  _207
REMARK   80  A    between atoms: _207  and  _208
REMARK   81  A    between atoms: _207  and  _210
REMARK   82  A    between atoms: _213  and  _215
REMARK   83  A    between atoms: _215  and  _216
REMARK   84  A    between atoms: _215  and  _218
REMARK   85  A    between atoms: _218  and  _219
REMARK   86  A    between atoms: _224  and  _225
REMARK   87  A    between atoms: _227  and  _229
REMARK   88  A    between atoms: _229  and  _230
REMARK   89  A    between atoms: _229  and  _232
REMARK   90  A    between atoms: _232  and  _233
REMARK   91  A    between atoms: _235  and  _237
REMARK   92  A    between atoms: _237  and  _238
REMARK   93  A    between atoms: _237  and  _240
REMARK   94  A    between atoms: _240  and  _241
REMARK   95  A    between atoms: _246  and  _248
REMARK   96  A    between atoms: _248  and  _249
REMARK   97  A    between atoms: _248  and  _251
REMARK   98  A    between atoms: _251  and  _252
REMARK   99  A    between atoms: _252  and  _253
REMARK  100  A    between atoms: _256  and  _258
REMARK  101  A    between atoms: _258  and  _259
REMARK  102  A    between atoms: _258  and  _261
REMARK  103  A    between atoms: _261  and  _262
REMARK  104  A    between atoms: _267  and  _268
REMARK  105  A    between atoms: _270  and  _272
REMARK  106  A    between atoms: _272  and  _273
REMARK  107  A    between atoms: _276  and  _278
REMARK  108  A    between atoms: _278  and  _279
REMARK  109  A    between atoms: _278  and  _281
REMARK  110  A    between atoms: _281  and  _282
REMARK  111  A    between atoms: _286  and  _287
REMARK  112  A    between atoms: _292  and  _294
REMARK  113  A    between atoms: _294  and  _295
REMARK  114  A    between atoms: _294  and  _297
REMARK  115  A    between atoms: _297  and  _298
REMARK  116  A    between atoms: _301  and  _303
REMARK  117  A    between atoms: _303  and  _304
REMARK  118  A    between atoms: _303  and  _306
REMARK  119  A    between atoms: _306  and  _307
REMARK  120  A    between atoms: _307  and  _308
REMARK  121  A    between atoms: _313  and  _315
REMARK  122  A    between atoms: _315  and  _316
REMARK  123  A    between atoms: _315  and  _318
REMARK  124  A    between atoms: _318  and  _319
REMARK  125  A    between atoms: _322  and  _324
REMARK  126  A    between atoms: _324  and  _325
REMARK  127  A    between atoms: _324  and  _327
REMARK  128  A    between atoms: _327  and  _328
REMARK  129  A    between atoms: _331  and  _333
REMARK  130  A    between atoms: _333  and  _334
REMARK  131  A    between atoms: _333  and  _336
REMARK  132  A    between atoms: _336  and  _337
REMARK  133  A    between atoms: _343  and  _345
REMARK  134  A    between atoms: _345  and  _346
REMARK  135  A    between atoms: _348  and  _350
REMARK  136  A    between atoms: _350  and  _351
REMARK  137  A    between atoms: _350  and  _353
REMARK  138  A    between atoms: _353  and  _354
REMARK  139  A    between atoms: _357  and  _359
REMARK  140  A    between atoms: _359  and  _360
REMARK  141  A    between atoms: _363  and  _365
REMARK  142  A    between atoms: _365  and  _366
REMARK  143  A    between atoms: _365  and  _368
REMARK  144  A    between atoms: _368  and  _369
REMARK  145  A    between atoms: _379  and  _381
REMARK  146  A    between atoms: _381  and  _382
REMARK  147  A    between atoms: _381  and  _384
REMARK  148  A    between atoms: _384  and  _385
REMARK  149  A    between atoms: _387  and  _389
REMARK  150  A    between atoms: _389  and  _390
REMARK  151  A    between atoms: _389  and  _392
REMARK  152  A    between atoms: _392  and  _393
REMARK  153  A    between atoms: _398  and  _399
REMARK  154  A    between atoms: _401  and  _403
REMARK  155  A    between atoms: _403  and  _404
REMARK  156  A    between atoms: _403  and  _406
REMARK  157  A    between atoms: _406  and  _407
REMARK  158  A    between atoms: _412  and  _413
REMARK  159  A    between atoms: _415  and  _417
REMARK  160  A    between atoms: _417  and  _418
REMARK  161  A    between atoms: _417  and  _420
REMARK  162  A    between atoms: _420  and  _421
REMARK  163  A    between atoms: _424  and  _426
REMARK  164  A    between atoms: _426  and  _427
REMARK  165  A    between atoms: _429  and  _431
REMARK  166  A    between atoms: _431  and  _432
REMARK  167  A    between atoms: _431  and  _434
REMARK  168  A    between atoms: _434  and  _435
REMARK  169  A    between atoms: _440  and  _441
REMARK  170  A    between atoms: _443  and  _445
REMARK  171  A    between atoms: _445  and  _446
REMARK  172  A    between atoms: _445  and  _448
REMARK  173  A    between atoms: _448  and  _449
REMARK  174  A    between atoms: _452  and  _454
REMARK  175  A    between atoms: _454  and  _455
REMARK  176  A    between atoms: _454  and  _457
REMARK  177  A    between atoms: _457  and  _458
REMARK  178  A    between atoms: _458  and  _459
REMARK  179  A    between atoms: _459  and  _460
REMARK  180  A    between atoms: _469  and  _471
REMARK  181  A    between atoms: _471  and  _472
REMARK  182  A    between atoms: _471  and  _474
REMARK  183  A    between atoms: _474  and  _475
REMARK  184  A    between atoms: _478  and  _480
REMARK  185  A    between atoms: _480  and  _481
REMARK  186  A    between atoms: _480  and  _483
REMARK  187  A    between atoms: _483  and  _484
REMARK  188  A    between atoms: _487  and  _489
REMARK  189  A    between atoms: _489  and  _490
REMARK  190  A    between atoms: _489  and  _492
REMARK  191  A    between atoms: _492  and  _493
REMARK  192  A    between atoms: _496  and  _498
REMARK  193  A    between atoms: _498  and  _499
REMARK  194  A    between atoms: _498  and  _501
REMARK  195  A    between atoms: _501  and  _502
REMARK  196  A    between atoms: _505  and  _507
REMARK  197  A    between atoms: _507  and  _508
REMARK  198  A    between atoms: _507  and  _510
REMARK  199  A    between atoms: _510  and  _511
REMARK  200  A    between atoms: _511  and  _512
REMARK  201  A    between atoms: _517  and  _519
REMARK  202  A    between atoms: _519  and  _520
REMARK  203  A    between atoms: _519  and  _522
REMARK  204  A    between atoms: _522  and  _523
REMARK  205  A    between atoms: _528  and  _530
REMARK  206  A    between atoms: _530  and  _531
REMARK  207  A    between atoms: _534  and  _536
REMARK  208  A    between atoms: _536  and  _537
REMARK  209  A    between atoms: _536  and  _539
REMARK  210  A    between atoms: _539  and  _540
REMARK  211  A    between atoms: _543  and  _545
REMARK  212  A    between atoms: _545  and  _546
REMARK  213  A    between atoms: _545  and  _548
REMARK  214  A    between atoms: _548  and  _549
REMARK  215  A    between atoms: _549  and  _550
REMARK  216  A    between atoms: _550  and  _551
REMARK  217  A    between atoms: _560  and  _562
REMARK  218  A    between atoms: _562  and  _563
REMARK  219  A    between atoms: _562  and  _565
REMARK  220  A    between atoms: _568  and  _570
REMARK  221  A    between atoms: _570  and  _571
REMARK  222  A    between atoms: _570  and  _573
REMARK  223  A    between atoms: _573  and  _574
REMARK  224  A    between atoms: _579  and  _580
REMARK  225  A    between atoms: _582  and  _584
REMARK  226  A    between atoms: _584  and  _585
REMARK  227  A    between atoms: _584  and  _587
REMARK  228  A    between atoms: _587  and  _588
REMARK  229  A    between atoms: _590  and  _592
REMARK  230  A    between atoms: _592  and  _593
REMARK  231  A    between atoms: _592  and  _595
REMARK  232  A    between atoms: _595  and  _596
REMARK  233  A    between atoms: _601  and  _603
REMARK  234  A    between atoms: _603  and  _604
REMARK  235  A    between atoms: _603  and  _606
REMARK  236  A    between atoms: _606  and  _607
REMARK  237  A    between atoms: _609  and  _611
REMARK  238  A    between atoms: _611  and  _612
REMARK  239  A    between atoms: _611  and  _614
REMARK  240  A    between atoms: _614  and  _615
REMARK  241  A    between atoms: _615  and  _616
REMARK  242  A    between atoms: _619  and  _621
REMARK  243  A    between atoms: _621  and  _622
REMARK  244  A    between atoms: _621  and  _624
REMARK  245  A    between atoms: _624  and  _625
REMARK  246  A    between atoms: _630  and  _631
REMARK  247  A    between atoms: _633  and  _635
REMARK  248  A    between atoms: _635  and  _636
REMARK  249  A    between atoms: _639  and  _641
REMARK  250  A    between atoms: _641  and  _642
REMARK  251  A    between atoms: _641  and  _644
REMARK  252  A    between atoms: _644  and  _645
REMARK  253  A    between atoms: _649  and  _650
REMARK  254  A    between atoms: _655  and  _657
REMARK  255  A    between atoms: _657  and  _658
REMARK  256  A    between atoms: _657  and  _660
REMARK  257  A    between atoms: _660  and  _661
REMARK  258  A    between atoms: _664  and  _666
REMARK  259  A    between atoms: _666  and  _667
REMARK  260  A    between atoms: _666  and  _669
REMARK  261  A    between atoms: _669  and  _670
REMARK  262  A    between atoms: _670  and  _671
REMARK  263  A    between atoms: _676  and  _678
REMARK  264  A    between atoms: _678  and  _679
REMARK  265  A    between atoms: _678  and  _681
REMARK  266  A    between atoms: _681  and  _682
REMARK  267  A    between atoms: _685  and  _687
REMARK  268  A    between atoms: _687  and  _688
REMARK  269  A    between atoms: _687  and  _690
REMARK  270  A    between atoms: _690  and  _691
REMARK                            x       y       z     vdW  Elec       q    Type
REMARK                         _______ _______ _______ _____ _____    ______ ____
ROOT
ATOM      1  C   THR A   4      43.061  39.018  11.316  0.00  0.00    +0.246 C 
ATOM      2  N   PRO A   5      42.188  39.436  12.278  0.00  0.00    -0.272 N 
ATOM      3  CD  PRO A   5      42.367  39.657  13.728  0.00  0.00    +0.094 C 
ATOM      4  CG  PRO A   5      41.002  39.449  14.283  0.00  0.00    +0.024 C 
ATOM      5  CB  PRO A   5      40.088  39.900  13.186  0.00  0.00    +0.031 C 
ATOM      6  CA  PRO A   5      40.789  39.449  11.905  0.00  0.00    +0.152 C 
ATOM      7  O   THR A   4      42.699  38.686  10.153  0.00  0.00    -0.273 OA
ENDROOT
BRANCH   6   8
ATOM      8  C   PRO A   5      40.443  40.362  10.768  0.00  0.00    +0.241 C 
ATOM      9  N   LEU A   6      41.276  41.388  10.487  0.00  0.00    -0.297 N 
ATOM     10  H   LEU A   6      42.116  41.554  11.077  0.00  0.00    +0.150 HD
ATOM     11  O   PRO A   5      39.392  40.213  10.143  0.00  0.00    -0.273 OA
BRANCH   9  12
ATOM     12  CA  LEU A   6      40.998  42.249   9.372  0.00  0.00    +0.149 C 
BRANCH  12  13
ATOM     13  C   LEU A   6      41.001  41.502   8.047  0.00  0.00    +0.241 C 
ATOM     14  N   GLN A   7      41.839  40.473   7.935  0.00  0.00    -0.297 N 
ATOM     15  H   GLN A   7      42.509  40.270   8.704  0.00  0.00    +0.150 HD
ATOM     16  O   LEU A   6      40.258  41.875   7.116  0.00  0.00    -0.273 OA
BRANCH  14  17
ATOM     17  CA  GLN A   7      41.828  39.617   6.732  0.00  0.00    +0.149 C 
BRANCH  17  18
ATOM     18  C   GLN A   7      40.464  38.957   6.542  0.00  0.00    +0.241 C 
ATOM     19  N   THR A   8      39.802  38.566   7.630  0.00  0.00    -0.296 N 
ATOM     20  H   THR A   8      40.268  38.663   8.554  0.00  0.00    +0.150 HD
ATOM     21  O   GLN A   7      40.014  38.757   5.420  0.00  0.00    -0.273 OA
BRANCH  19  22
ATOM     22  CA  THR A   8      38.460  38.010   7.588  0.00  0.00    +0.164 C 
BRANCH  22  23
ATOM     23  CB  THR A   8      37.983  37.491   8.977  0.00  0.00    +0.136 C 
ATOM     24  CG2 THR A   8      36.595  36.915   8.841  0.00  0.00    +0.034 C 
BRANCH  23  25
ATOM     25  OG1 THR A   8      38.865  36.478   9.411  0.00  0.00    -0.382 OA
ATOM     26  HG1 THR A   8      38.570  36.141  10.294  0.00  0.00    +0.210 HD
ENDBRANCH  23  25
ENDBRANCH  22  23
BRANCH  22  27
ATOM     27  C   THR A   8      37.449  38.996   7.062  0.00  0.00    +0.229 C 
ATOM     28  O   THR A   8      36.609  38.657   6.171  0.00  0.00    -0.286 OA
ENDBRANCH  22  27
ENDBRANCH  19  22
ENDBRANCH  17  18
BRANCH  17  29
ATOM     29  CB  GLN A   7      42.964  38.588   6.791  0.00  0.00    +0.039 C 
BRANCH  29  30
ATOM     30  CG  GLN A   7      43.183  37.753   5.513  0.00  0.00    +0.087 C 
BRANCH  30  31
ATOM     31  CD  GLN A   7      43.951  38.465   4.388  0.00  0.00    +0.219 C 
ATOM     32  NE2 GLN A   7      45.291  38.297   4.370  0.00  0.00    -0.329 N 
ATOM     33 HE21 GLN A   7      45.758  37.764   5.131  0.00  0.00    +0.145 HD
ATOM     34 HE22 GLN A   7      45.855  38.701   3.595  0.00  0.00    +0.145 HD
ATOM     35  OE1 GLN A   7      43.348  39.095   3.500  0.00  0.00    -0.275 OA
ENDBRANCH  30  31
ENDBRANCH  29  30
ENDBRANCH  17  29
ENDBRANCH  14  17
ENDBRANCH  12  13
BRANCH  12  36
ATOM     36  CB  LEU A   6      41.902  43.492   9.304  0.00  0.00    +0.029 C 
BRANCH  36  37
ATOM     37  CG  LEU A   6      41.766  44.386  10.525  0.00  0.00    +0.002 C 
ATOM     38  CD2 LEU A   6      40.413  44.889  10.828  0.00  0.00    +0.000 C 
ATOM     39  CD1 LEU A   6      42.745  45.532  10.478  0.00  0.00    +0.000 C 
ENDBRANCH  36  37
ENDBRANCH  12  36
ENDBRANCH   9  12
ENDBRANCH   6   8
BRANCH   1  40
ATOM     40  CA  THR A   4      44.563  38.986  11.621  0.00  0.00    +0.176 C 
BRANCH  40  42
ATOM     41  C   ALA A   3      44.874  41.289  12.230  0.00  0.00    +0.241 C 
ATOM     42  N   THR A   4      45.075  40.020  12.483  0.00  0.00    -0.295 N 
ATOM     43  H   THR A   4      45.618  39.752  13.328  0.00  0.00    +0.150 HD
ATOM     44  O   ALA A   3      44.245  41.663  11.253  0.00  0.00    -0.273 OA
BRANCH  41  45
ATOM     45  CA  ALA A   3      45.514  42.285  13.190  0.00  0.00    +0.149 C 
ATOM     46  CB  ALA A   3      44.483  43.320  13.607  0.00  0.00    +0.031 C 
BRANCH  45  49
ATOM     47  C   TYR A   2      47.759  42.310  12.197  0.00  0.00    +0.241 C 
ATOM     48  O   TYR A   2      47.999  41.159  12.606  0.00  0.00    -0.273 OA
ATOM     49  N   ALA A   3      46.625  42.945  12.476  0.00  0.00    -0.297 N 
ATOM     50  H   ALA A   3      46.517  43.937  12.182  0.00  0.00    +0.150 HD
BRANCH  47  51
ATOM     51  CA  TYR A   2      48.736  43.040  11.352  0.00  0.00    +0.153 C 
BRANCH  51  54
ATOM     52  C   GLU A   1      50.755  43.108  12.657  0.00  0.00    +0.238 C 
ATOM     53  O   GLU A   1      50.289  44.007  13.342  0.00  0.00    -0.274 OA
ATOM     54  N   TYR A   2      50.130  42.629  11.617  0.00  0.00    -0.297 N 
ATOM     55  H   TYR A   2      50.610  41.962  10.979  0.00  0.00    +0.150 HD
BRANCH  52  56
ATOM     56  CA  GLU A   1      52.085  42.487  12.972  0.00  0.00    +0.145 C 
BRANCH  56  57
ATOM     57  N   GLU A   1      52.902  43.369  13.819  0.00  0.00    -0.238 NA
ATOM     58  H   GLU A   1      52.454  44.185  14.283  0.00  0.00    +0.142 HD
ENDBRANCH  56  57
BRANCH  56  59
ATOM     59  CB  GLU A   1      51.844  41.147  13.616  0.00  0.00    +0.038 C 
BRANCH  59  60
ATOM     60  CG  GLU A   1      51.117  41.238  14.950  0.00  0.00    +0.116 C 
BRANCH  60  61
ATOM     61  CD  GLU A   1      51.265  39.928  15.738  0.00  0.00    +0.365 C 
ATOM     62  OE2 GLU A   1      50.228  39.326  16.098  0.00  0.00    -0.246 OA
ATOM     63  OE1 GLU A   1      52.400  39.481  15.991  0.00  0.00    -0.246 OA
ENDBRANCH  60  61
ENDBRANCH  59  60
ENDBRANCH  56  59
ENDBRANCH  52  56
ENDBRANCH  51  54
BRANCH  51  64
ATOM     64  CB  TYR A   2      48.390  42.818   9.897  0.00  0.00    +0.055 C 
BRANCH  64  65
ATOM     65  CG  TYR A   2      49.049  43.735   8.949  0.00  0.00    -0.020 A 
ATOM     66  CD2 TYR A   2      48.492  44.935   8.613  0.00  0.00    -0.001 A 
ATOM     67  CE2 TYR A   2      49.070  45.784   7.687  0.00  0.00    +0.036 A 
ATOM     68  CZ  TYR A   2      50.248  45.411   7.076  0.00  0.00    +0.134 A 
ATOM     69  CE1 TYR A   2      50.839  44.215   7.383  0.00  0.00    +0.036 A 
ATOM     70  CD1 TYR A   2      50.234  43.363   8.297  0.00  0.00    -0.001 A 
BRANCH  68  71
ATOM     71  OH  TYR A   2      50.815  46.271   6.190  0.00  0.00    -0.506 OA
ATOM     72  HH  TYR A   2      50.244  47.075   6.100  0.00  0.00    +0.292 HD
ENDBRANCH  68  71
ENDBRANCH  64  65
ENDBRANCH  51  64
ENDBRANCH  47  51
ENDBRANCH  45  49
ENDBRANCH  41  45
ENDBRANCH  40  42
BRANCH  40  73
ATOM     73  CB  THR A   4      45.005  37.587  12.141  0.00  0.00    +0.137 C 
ATOM     74  CG2 THR A   4      46.374  37.275  11.682  0.00  0.00    +0.034 C 
BRANCH  73  75
ATOM     75  OG1 THR A   4      44.986  37.604  13.579  0.00  0.00    -0.382 OA
ATOM     76  HG1 THR A   4      45.266  36.718  13.922  0.00  0.00    +0.210 HD
ENDBRANCH  73  75
ENDBRANCH  40  73
ENDBRANCH   1  40
TORSDOF 30
REMARK  Name = ../refined-set-2016/4loi/4loi_pocket.pdb
REMARK  270 active torsions:
REMARK  status: ('A' for Active; 'I' for Inactive)
REMARK    1  A    between atoms: _1  and  _3
REMARK    2  A    between atoms: _3  and  _4
REMARK    3  A    between atoms: _6  and  _8
REMARK    4  A    between atoms: _8  and  _9
REMARK    5  A    between atoms: _8  and  _11
REMARK    6  A    between atoms: _11  and  _12
REMARK    7  A    between atoms: _15  and  _17
REMARK    8  A    between atoms: _17  and  _18
REMARK    9  A    between atoms: _21  and  _23
REMARK   10  A    between atoms: _23  and  _24
REMARK   11  A    between atoms: _23  and  _26
REMARK   12  A    between atoms: _26  and  _27
REMARK   13  A    between atoms: _37  and  _39
REMARK   14  A    between atoms: _39  and  _40
REMARK   15  A    between atoms: _39  and  _42
REMARK   16  A    between atoms: _42  and  _43
REMARK   17  A    between atoms: _45  and  _47
REMARK   18  A    between atoms: _47  and  _48
REMARK   19  A    between atoms: _47  and  _50
REMARK   20  A    between atoms: _50  and  _51
REMARK   21  A    between atoms: _56  and  _57
REMARK   22  A    between atoms: _59  and  _61
REMARK   23  A    between atoms: _61  and  _62
REMARK   24  A    between atoms: _61  and  _64
REMARK   25  A    between atoms: _64  and  _65
REMARK   26  A    between atoms: _70  and  _71
REMARK   27  A    between atoms: _73  and  _75
REMARK   28  A    between atoms: _75  and  _76
REMARK   29  A    between atoms: _75  and  _78
REMARK   30  A    between atoms: _78  and  _79
REMARK   31  A    between atoms: _82  and  _84
REMARK   32  A    between atoms: _84  and  _85
REMARK   33  A    between atoms: _87  and  _89
REMARK   34  A    between atoms: _89  and  _90
REMARK   35  A    between atoms: _89  and  _92
REMARK   36  A    between atoms: _92  and  _93
REMARK   37  A    between atoms: _98  and  _99
REMARK   38  A    between atoms: _101  and  _103
REMARK   39  A    between atoms: _103  and  _104
REMARK   40  A    between atoms: _103  and  _106
REMARK   41  A    between atoms: _106  and  _107
REMARK   42  A    between atoms: _110  and  _112
REMARK   43  A    between atoms: _112  and  _113
REMARK   44  A    between atoms: _112  and  _115
REMARK   45  A    between atoms: _115  and  _116
REMARK   46  A    between atoms: _116  and  _117
REMARK   47  A    between atoms: _117  and  _118
REMARK   48  A    between atoms: _127  and  _129
REMARK   49  A    between atoms: _129  and  _130
REMARK   50  A    between atoms: _129  and  _132
REMARK   51  A    between atoms: _132  and  _133
REMARK   52  A    between atoms: _136  and  _138
REMARK   53  A    between atoms: _138  and  _139
REMARK   54  A    between atoms: _138  and  _141
REMARK   55  A    between atoms: _141  and  _142
REMARK   56  A    between atoms: _145  and  _147
REMARK   57  A    between atoms: _147  and  _148
REMARK   58  A    between atoms: _147  and  _150
REMARK   59  A    between atoms: _150  and  _151
REMARK   60  A    between atoms: _151  and  _152
REMARK   61  A    between atoms: _157  and  _159
REMARK   62  A    between atoms: _159  and  _160
REMARK   63  A    between atoms: _159  and  _162
REMARK   64  A    between atoms: _162  and  _163
REMARK   65  A    between atoms: _168  and  _170
REMARK   66  A    between atoms: _170  and  _171
REMARK   67  A    between atoms: _174  and  _176
REMARK   68  A    between atoms: _176  and  _177
REMARK   69  A    between atoms: _179  and  _181
REMARK   70  A    between atoms: _181  and  _182
REMARK   71  A    between atoms: _181  and  _184
REMARK   72  A    between atoms: _184  and  _185
REMARK   73  A    between atoms: _188  and  _190
REMARK   74  A    between atoms: _190  and  _191
REMARK   75  A    between atoms: _190  and  _193
REMARK   76  A    between atoms: _193  and  _194
REMARK   77  A    between atoms: _194  and  _195
REMARK   78  A    between atoms: _195  and  _196
REMARK   79  A    between atoms: _205  and  _207
REMARK   80  A    between atoms: _207  and  _208
REMARK   81  A    between atoms: _207  and  _210
REMARK   82  A    between atoms: _213  and  _215
REMARK   83  A    between atoms: _215  and  _216
REMARK   84  A    between atoms: _215  and  _218
REMARK   85  A    between atoms: _218  and  _219
REMARK   86  A    between atoms: _224  and  _225
REMARK   87  A    between atoms: _227  and  _229
REMARK   88  A    between atoms: _229  and  _230
REMARK   89  A    between atoms: _229  and  _232
REMARK   90  A    between atoms: _232  and  _233
REMARK   91  A    between atoms: _235  and  _237
REMARK   92  A    between atoms: _237  and  _238
REMARK   93  A    between atoms: _237  and  _240
REMARK   94  A    between atoms: _240  and  _241
REMARK   95  A    between atoms: _246  and  _248
REMARK   96  A    between atoms: _248  and  _249
REMARK   97  A    between atoms: _248  and  _251
REMARK   98  A    between atoms: _251  and  _252
REMARK   99  A    between atoms: _252  and  _253
REMARK  100  A    between atoms: _256  and  _258
REMARK  101  A    between atoms: _258  and  _259
REMARK  102  A    between atoms: _258  and  _261
REMARK  103  A    between atoms: _261  and  _262
REMARK  104  A    between atoms: _267  and  _268
REMARK  105  A    between atoms: _270  and  _272
REMARK  106  A    between atoms: _272  and  _273
REMARK  107  A    between atoms: _276  and  _278
REMARK  108  A    between atoms: _278  and  _279
REMARK  109  A    between atoms: _278  and  _281
REMARK  110  A    between atoms: _281  and  _282
REMARK  111  A    between atoms: _286  and  _287
REMARK  112  A    between atoms: _292  and  _294
REMARK  113  A    between atoms: _294  and  _295
REMARK  114  A    between atoms: _294  and  _297
REMARK  115  A    between atoms: _297  and  _298
REMARK  116  A    between atoms: _301  and  _303
REMARK  117  A    between atoms: _303  and  _304
REMARK  118  A    between atoms: _303  and  _306
REMARK  119  A    between atoms: _306  and  _307
REMARK  120  A    between atoms: _307  and  _308
REMARK  121  A    between atoms: _313  and  _315
REMARK  122  A    between atoms: _315  and  _316
REMARK  123  A    between atoms: _315  and  _318
REMARK  124  A    between atoms: _318  and  _319
REMARK  125  A    between atoms: _322  and  _324
REMARK  126  A    between atoms: _324  and  _325
REMARK  127  A    between atoms: _324  and  _327
REMARK  128  A    between atoms: _327  and  _328
REMARK  129  A    between atoms: _331  and  _333
REMARK  130  A    between atoms: _333  and  _334
REMARK  131  A    between atoms: _333  and  _336
REMARK  132  A    between atoms: _336  and  _337
REMARK  133  A    between atoms: _343  and  _345
REMARK  134  A    between atoms: _345  and  _346
REMARK  135  A    between atoms: _348  and  _350
REMARK  136  A    between atoms: _350  and  _351
REMARK  137  A    between atoms: _350  and  _353
REMARK  138  A    between atoms: _353  and  _354
REMARK  139  A    between atoms: _357  and  _359
REMARK  140  A    between atoms: _359  and  _360
REMARK  141  A    between atoms: _363  and  _365
REMARK  142  A    between atoms: _365  and  _366
REMARK  143  A    between atoms: _365  and  _368
REMARK  144  A    between atoms: _368  and  _369
REMARK  145  A    between atoms: _379  and  _381
REMARK  146  A    between atoms: _381  and  _382
REMARK  147  A    between atoms: _381  and  _384
REMARK  148  A    between atoms: _384  and  _385
REMARK  149  A    between atoms: _387  and  _389
REMARK  150  A    between atoms: _389  and  _390
REMARK  151  A    between atoms: _389  and  _392
REMARK  152  A    between atoms: _392  and  _393
REMARK  153  A    between atoms: _398  and  _399
REMARK  154  A    between atoms: _401  and  _403
REMARK  155  A    between atoms: _403  and  _404
REMARK  156  A    between atoms: _403  and  _406
REMARK  157  A    between atoms: _406  and  _407
REMARK  158  A    between atoms: _412  and  _413
REMARK  159  A    between atoms: _415  and  _417
REMARK  160  A    between atoms: _417  and  _418
REMARK  161  A    between atoms: _417  and  _420
REMARK  162  A    between atoms: _420  and  _421
REMARK  163  A    between atoms: _424  and  _426
REMARK  164  A    between atoms: _426  and  _427
REMARK  165  A    between atoms: _429  and  _431
REMARK  166  A    between atoms: _431  and  _432
REMARK  167  A    between atoms: _431  and  _434
REMARK  168  A    between atoms: _434  and  _435
REMARK  169  A    between atoms: _440  and  _441
REMARK  170  A    between atoms: _443  and  _445
REMARK  171  A    between atoms: _445  and  _446
REMARK  172  A    between atoms: _445  and  _448
REMARK  173  A    between atoms: _448  and  _449
REMARK  174  A    between atoms: _452  and  _454
REMARK  175  A    between atoms: _454  and  _455
REMARK  176  A    between atoms: _454  and  _457
REMARK  177  A    between atoms: _457  and  _458
REMARK  178  A    between atoms: _458  and  _459
REMARK  179  A    between atoms: _459  and  _460
REMARK  180  A    between atoms: _469  and  _471
REMARK  181  A    between atoms: _471  and  _472
REMARK  182  A    between atoms: _471  and  _474
REMARK  183  A    between atoms: _474  and  _475
REMARK  184  A    between atoms: _478  and  _480
REMARK  185  A    between atoms: _480  and  _481
REMARK  186  A    between atoms: _480  and  _483
REMARK  187  A    between atoms: _483  and  _484
REMARK  188  A    between atoms: _487  and  _489
REMARK  189  A    between atoms: _489  and  _490
REMARK  190  A    between atoms: _489  and  _492
REMARK  191  A    between atoms: _492  and  _493
REMARK  192  A    between atoms: _496  and  _498
REMARK  193  A    between atoms: _498  and  _499
REMARK  194  A    between atoms: _498  and  _501
REMARK  195  A    between atoms: _501  and  _502
REMARK  196  A    between atoms: _505  and  _507
REMARK  197  A    between atoms: _507  and  _508
REMARK  198  A    between atoms: _507  and  _510
REMARK  199  A    between atoms: _510  and  _511
REMARK  200  A    between atoms: _511  and  _512
REMARK  201  A    between atoms: _517  and  _519
REMARK  202  A    between atoms: _519  and  _520
REMARK  203  A    between atoms: _519  and  _522
REMARK  204  A    between atoms: _522  and  _523
REMARK  205  A    between atoms: _528  and  _530
REMARK  206  A    between atoms: _530  and  _531
REMARK  207  A    between atoms: _534  and  _536
REMARK  208  A    between atoms: _536  and  _537
REMARK  209  A    between atoms: _536  and  _539
REMARK  210  A    between atoms: _539  and  _540
REMARK  211  A    between atoms: _543  and  _545
REMARK  212  A    between atoms: _545  and  _546
REMARK  213  A    between atoms: _545  and  _548
REMARK  214  A    between atoms: _548  and  _549
REMARK  215  A    between atoms: _549  and  _550
REMARK  216  A    between atoms: _550  and  _551
REMARK  217  A    between atoms: _560  and  _562
REMARK  218  A    between atoms: _562  and  _563
REMARK  219  A    between atoms: _562  and  _565
REMARK  220  A    between atoms: _568  and  _570
REMARK  221  A    between atoms: _570  and  _571
REMARK  222  A    between atoms: _570  and  _573
REMARK  223  A    between atoms: _573  and  _574
REMARK  224  A    between atoms: _579  and  _580
REMARK  225  A    between atoms: _582  and  _584
REMARK  226  A    between atoms: _584  and  _585
REMARK  227  A    between atoms: _584  and  _587
REMARK  228  A    between atoms: _587  and  _588
REMARK  229  A    between atoms: _590  and  _592
REMARK  230  A    between atoms: _592  and  _593
REMARK  231  A    between atoms: _592  and  _595
REMARK  232  A    between atoms: _595  and  _596
REMARK  233  A    between atoms: _601  and  _603
REMARK  234  A    between atoms: _603  and  _604
REMARK  235  A    between atoms: _603  and  _606
REMARK  236  A    between atoms: _606  and  _607
REMARK  237  A    between atoms: _609  and  _611
REMARK  238  A    between atoms: _611  and  _612
REMARK  239  A    between atoms: _611  and  _614
REMARK  240  A    between atoms: _614  and  _615
REMARK  241  A    between atoms: _615  and  _616
REMARK  242  A    between atoms: _619  and  _621
REMARK  243  A    between atoms: _621  and  _622
REMARK  244  A    between atoms: _621  and  _624
REMARK  245  A    between atoms: _624  and  _625
REMARK  246  A    between atoms: _630  and  _631
REMARK  247  A    between atoms: _633  and  _635
REMARK  248  A    between atoms: _635  and  _636
REMARK  249  A    between atoms: _639  and  _641
REMARK  250  A    between atoms: _641  and  _642
REMARK  251  A    between atoms: _641  and  _644
REMARK  252  A    between atoms: _644  and  _645
REMARK  253  A    between atoms: _649  and  _650
REMARK  254  A    between atoms: _655  and  _657
REMARK  255  A    between atoms: _657  and  _658
REMARK  256  A    between atoms: _657  and  _660
REMARK  257  A    between atoms: _660  and  _661
REMARK  258  A    between atoms: _664  and  _666
REMARK  259  A    between atoms: _666  and  _667
REMARK  260  A    between atoms: _666  and  _669
REMARK  261  A    between atoms: _669  and  _670
REMARK  262  A    between atoms: _670  and  _671
REMARK  263  A    between atoms: _676  and  _678
REMARK  264  A    between atoms: _678  and  _679
REMARK  265  A    between atoms: _678  and  _681
REMARK  266  A    between atoms: _681  and  _682
REMARK  267  A    between atoms: _685  and  _687
REMARK  268  A    between atoms: _687  and  _688
REMARK  269  A    between atoms: _687  and  _690
REMARK  270  A    between atoms: _690  and  _691
REMARK                            x       y       z     vdW  Elec       q    Type
REMARK                         _______ _______ _______ _____ _____    ______ ____
ROOT
ATOM      1  CB  PHE A   1      37.152  45.346  14.346  0.00  0.00    +0.051 C 
ENDROOT
BRANCH   1   2
ATOM      2  CG  PHE A   1      38.300  44.464  14.757  0.00  0.00    -0.020 A 
ATOM      3  CD2 PHE A   1      38.061  43.144  15.203  0.00  0.00    -0.004 A 
ATOM      4  CE2 PHE A   1      39.130  42.326  15.565  0.00  0.00    -0.000 A 
ATOM      5  CZ  PHE A   1      40.415  42.812  15.600  0.00  0.00    -0.000 A 
ATOM      6  CE1 PHE A   1      40.672  44.099  15.181  0.00  0.00    -0.000 A 
ATOM      7  CD1 PHE A   1      39.611  44.918  14.727  0.00  0.00    -0.004 A 
ENDBRANCH   1   2
BRANCH   1   8
ATOM      8  CA  PHE A   1      36.462  46.026  15.523  0.00  0.00    +0.137 C 
BRANCH   8   9
ATOM      9  N   PHE A   1      35.468  46.978  15.045  0.00  0.00    -0.239 NA
ATOM     10  H   PHE A   1      35.303  47.071  14.022  0.00  0.00    +0.142 HD
ENDBRANCH   8   9
BRANCH   8  11
ATOM     11  C   PHE A   1      37.518  46.755  16.360  0.00  0.00    +0.224 C 
ATOM     12  O   PHE A   1      37.860  46.321  17.460  0.00  0.00    -0.287 OA
ENDBRANCH   8  11
ENDBRANCH   1   8
TORSDOF 4
REMARK  Name = ../refined-set-2016/4loi/4loi_pocket.pdb
REMARK  270 active torsions:
REMARK  status: ('A' for Active; 'I' for Inactive)
REMARK    1  A    between atoms: _1  and  _3
REMARK    2  A    between atoms: _3  and  _4
REMARK    3  A    between atoms: _6  and  _8
REMARK    4  A    between atoms: _8  and  _9
REMARK    5  A    between atoms: _8  and  _11
REMARK    6  A    between atoms: _11  and  _12
REMARK    7  A    between atoms: _15  and  _17
REMARK    8  A    between atoms: _17  and  _18
REMARK    9  A    between atoms: _21  and  _23
REMARK   10  A    between atoms: _23  and  _24
REMARK   11  A    between atoms: _23  and  _26
REMARK   12  A    between atoms: _26  and  _27
REMARK   13  A    between atoms: _37  and  _39
REMARK   14  A    between atoms: _39  and  _40
REMARK   15  A    between atoms: _39  and  _42
REMARK   16  A    between atoms: _42  and  _43
REMARK   17  A    between atoms: _45  and  _47
REMARK   18  A    between atoms: _47  and  _48
REMARK   19  A    between atoms: _47  and  _50
REMARK   20  A    between atoms: _50  and  _51
REMARK   21  A    between atoms: _56  and  _57
REMARK   22  A    between atoms: _59  and  _61
REMARK   23  A    between atoms: _61  and  _62
REMARK   24  A    between atoms: _61  and  _64
REMARK   25  A    between atoms: _64  and  _65
REMARK   26  A    between atoms: _70  and  _71
REMARK   27  A    between atoms: _73  and  _75
REMARK   28  A    between atoms: _75  and  _76
REMARK   29  A    between atoms: _75  and  _78
REMARK   30  A    between atoms: _78  and  _79
REMARK   31  A    between atoms: _82  and  _84
REMARK   32  A    between atoms: _84  and  _85
REMARK   33  A    between atoms: _87  and  _89
REMARK   34  A    between atoms: _89  and  _90
REMARK   35  A    between atoms: _89  and  _92
REMARK   36  A    between atoms: _92  and  _93
REMARK   37  A    between atoms: _98  and  _99
REMARK   38  A    between atoms: _101  and  _103
REMARK   39  A    between atoms: _103  and  _104
REMARK   40  A    between atoms: _103  and  _106
REMARK   41  A    between atoms: _106  and  _107
REMARK   42  A    between atoms: _110  and  _112
REMARK   43  A    between atoms: _112  and  _113
REMARK   44  A    between atoms: _112  and  _115
REMARK   45  A    between atoms: _115  and  _116
REMARK   46  A    between atoms: _116  and  _117
REMARK   47  A    between atoms: _117  and  _118
REMARK   48  A    between atoms: _127  and  _129
REMARK   49  A    between atoms: _129  and  _130
REMARK   50  A    between atoms: _129  and  _132
REMARK   51  A    between atoms: _132  and  _133
REMARK   52  A    between atoms: _136  and  _138
REMARK   53  A    between atoms: _138  and  _139
REMARK   54  A    between atoms: _138  and  _141
REMARK   55  A    between atoms: _141  and  _142
REMARK   56  A    between atoms: _145  and  _147
REMARK   57  A    between atoms: _147  and  _148
REMARK   58  A    between atoms: _147  and  _150
REMARK   59  A    between atoms: _150  and  _151
REMARK   60  A    between atoms: _151  and  _152
REMARK   61  A    between atoms: _157  and  _159
REMARK   62  A    between atoms: _159  and  _160
REMARK   63  A    between atoms: _159  and  _162
REMARK   64  A    between atoms: _162  and  _163
REMARK   65  A    between atoms: _168  and  _170
REMARK   66  A    between atoms: _170  and  _171
REMARK   67  A    between atoms: _174  and  _176
REMARK   68  A    between atoms: _176  and  _177
REMARK   69  A    between atoms: _179  and  _181
REMARK   70  A    between atoms: _181  and  _182
REMARK   71  A    between atoms: _181  and  _184
REMARK   72  A    between atoms: _184  and  _185
REMARK   73  A    between atoms: _188  and  _190
REMARK   74  A    between atoms: _190  and  _191
REMARK   75  A    between atoms: _190  and  _193
REMARK   76  A    between atoms: _193  and  _194
REMARK   77  A    between atoms: _194  and  _195
REMARK   78  A    between atoms: _195  and  _196
REMARK   79  A    between atoms: _205  and  _207
REMARK   80  A    between atoms: _207  and  _208
REMARK   81  A    between atoms: _207  and  _210
REMARK   82  A    between atoms: _213  and  _215
REMARK   83  A    between atoms: _215  and  _216
REMARK   84  A    between atoms: _215  and  _218
REMARK   85  A    between atoms: _218  and  _219
REMARK   86  A    between atoms: _224  and  _225
REMARK   87  A    between atoms: _227  and  _229
REMARK   88  A    between atoms: _229  and  _230
REMARK   89  A    between atoms: _229  and  _232
REMARK   90  A    between atoms: _232  and  _233
REMARK   91  A    between atoms: _235  and  _237
REMARK   92  A    between atoms: _237  and  _238
REMARK   93  A    between atoms: _237  and  _240
REMARK   94  A    between atoms: _240  and  _241
REMARK   95  A    between atoms: _246  and  _248
REMARK   96  A    between atoms: _248  and  _249
REMARK   97  A    between atoms: _248  and  _251
REMARK   98  A    between atoms: _251  and  _252
REMARK   99  A    between atoms: _252  and  _253
REMARK  100  A    between atoms: _256  and  _258
REMARK  101  A    between atoms: _258  and  _259
REMARK  102  A    between atoms: _258  and  _261
REMARK  103  A    between atoms: _261  and  _262
REMARK  104  A    between atoms: _267  and  _268
REMARK  105  A    between atoms: _270  and  _272
REMARK  106  A    between atoms: _272  and  _273
REMARK  107  A    between atoms: _276  and  _278
REMARK  108  A    between atoms: _278  and  _279
REMARK  109  A    between atoms: _278  and  _281
REMARK  110  A    between atoms: _281  and  _282
REMARK  111  A    between atoms: _286  and  _287
REMARK  112  A    between atoms: _292  and  _294
REMARK  113  A    between atoms: _294  and  _295
REMARK  114  A    between atoms: _294  and  _297
REMARK  115  A    between atoms: _297  and  _298
REMARK  116  A    between atoms: _301  and  _303
REMARK  117  A    between atoms: _303  and  _304
REMARK  118  A    between atoms: _303  and  _306
REMARK  119  A    between atoms: _306  and  _307
REMARK  120  A    between atoms: _307  and  _308
REMARK  121  A    between atoms: _313  and  _315
REMARK  122  A    between atoms: _315  and  _316
REMARK  123  A    between atoms: _315  and  _318
REMARK  124  A    between atoms: _318  and  _319
REMARK  125  A    between atoms: _322  and  _324
REMARK  126  A    between atoms: _324  and  _325
REMARK  127  A    between atoms: _324  and  _327
REMARK  128  A    between atoms: _327  and  _328
REMARK  129  A    between atoms: _331  and  _333
REMARK  130  A    between atoms: _333  and  _334
REMARK  131  A    between atoms: _333  and  _336
REMARK  132  A    between atoms: _336  and  _337
REMARK  133  A    between atoms: _343  and  _345
REMARK  134  A    between atoms: _345  and  _346
REMARK  135  A    between atoms: _348  and  _350
REMARK  136  A    between atoms: _350  and  _351
REMARK  137  A    between atoms: _350  and  _353
REMARK  138  A    between atoms: _353  and  _354
REMARK  139  A    between atoms: _357  and  _359
REMARK  140  A    between atoms: _359  and  _360
REMARK  141  A    between atoms: _363  and  _365
REMARK  142  A    between atoms: _365  and  _366
REMARK  143  A    between atoms: _365  and  _368
REMARK  144  A    between atoms: _368  and  _369
REMARK  145  A    between atoms: _379  and  _381
REMARK  146  A    between atoms: _381  and  _382
REMARK  147  A    between atoms: _381  and  _384
REMARK  148  A    between atoms: _384  and  _385
REMARK  149  A    between atoms: _387  and  _389
REMARK  150  A    between atoms: _389  and  _390
REMARK  151  A    between atoms: _389  and  _392
REMARK  152  A    between atoms: _392  and  _393
REMARK  153  A    between atoms: _398  and  _399
REMARK  154  A    between atoms: _401  and  _403
REMARK  155  A    between atoms: _403  and  _404
REMARK  156  A    between atoms: _403  and  _406
REMARK  157  A    between atoms: _406  and  _407
REMARK  158  A    between atoms: _412  and  _413
REMARK  159  A    between atoms: _415  and  _417
REMARK  160  A    between atoms: _417  and  _418
REMARK  161  A    between atoms: _417  and  _420
REMARK  162  A    between atoms: _420  and  _421
REMARK  163  A    between atoms: _424  and  _426
REMARK  164  A    between atoms: _426  and  _427
REMARK  165  A    between atoms: _429  and  _431
REMARK  166  A    between atoms: _431  and  _432
REMARK  167  A    between atoms: _431  and  _434
REMARK  168  A    between atoms: _434  and  _435
REMARK  169  A    between atoms: _440  and  _441
REMARK  170  A    between atoms: _443  and  _445
REMARK  171  A    between atoms: _445  and  _446
REMARK  172  A    between atoms: _445  and  _448
REMARK  173  A    between atoms: _448  and  _449
REMARK  174  A    between atoms: _452  and  _454
REMARK  175  A    between atoms: _454  and  _455
REMARK  176  A    between atoms: _454  and  _457
REMARK  177  A    between atoms: _457  and  _458
REMARK  178  A    between atoms: _458  and  _459
REMARK  179  A    between atoms: _459  and  _460
REMARK  180  A    between atoms: _469  and  _471
REMARK  181  A    between atoms: _471  and  _472
REMARK  182  A    between atoms: _471  and  _474
REMARK  183  A    between atoms: _474  and  _475
REMARK  184  A    between atoms: _478  and  _480
REMARK  185  A    between atoms: _480  and  _481
REMARK  186  A    between atoms: _480  and  _483
REMARK  187  A    between atoms: _483  and  _484
REMARK  188  A    between atoms: _487  and  _489
REMARK  189  A    between atoms: _489  and  _490
REMARK  190  A    between atoms: _489  and  _492
REMARK  191  A    between atoms: _492  and  _493
REMARK  192  A    between atoms: _496  and  _498
REMARK  193  A    between atoms: _498  and  _499
REMARK  194  A    between atoms: _498  and  _501
REMARK  195  A    between atoms: _501  and  _502
REMARK  196  A    between atoms: _505  and  _507
REMARK  197  A    between atoms: _507  and  _508
REMARK  198  A    between atoms: _507  and  _510
REMARK  199  A    between atoms: _510  and  _511
REMARK  200  A    between atoms: _511  and  _512
REMARK  201  A    between atoms: _517  and  _519
REMARK  202  A    between atoms: _519  and  _520
REMARK  203  A    between atoms: _519  and  _522
REMARK  204  A    between atoms: _522  and  _523
REMARK  205  A    between atoms: _528  and  _530
REMARK  206  A    between atoms: _530  and  _531
REMARK  207  A    between atoms: _534  and  _536
REMARK  208  A    between atoms: _536  and  _537
REMARK  209  A    between atoms: _536  and  _539
REMARK  210  A    between atoms: _539  and  _540
REMARK  211  A    between atoms: _543  and  _545
REMARK  212  A    between atoms: _545  and  _546
REMARK  213  A    between atoms: _545  and  _548
REMARK  214  A    between atoms: _548  and  _549
REMARK  215  A    between atoms: _549  and  _550
REMARK  216  A    between atoms: _550  and  _551
REMARK  217  A    between atoms: _560  and  _562
REMARK  218  A    between atoms: _562  and  _563
REMARK  219  A    between atoms: _562  and  _565
REMARK  220  A    between atoms: _568  and  _570
REMARK  221  A    between atoms: _570  and  _571
REMARK  222  A    between atoms: _570  and  _573
REMARK  223  A    between atoms: _573  and  _574
REMARK  224  A    between atoms: _579  and  _580
REMARK  225  A    between atoms: _582  and  _584
REMARK  226  A    between atoms: _584  and  _585
REMARK  227  A    between atoms: _584  and  _587
REMARK  228  A    between atoms: _587  and  _588
REMARK  229  A    between atoms: _590  and  _592
REMARK  230  A    between atoms: _592  and  _593
REMARK  231  A    between atoms: _592  and  _595
REMARK  232  A    between atoms: _595  and  _596
REMARK  233  A    between atoms: _601  and  _603
REMARK  234  A    between atoms: _603  and  _604
REMARK  235  A    between atoms: _603  and  _606
REMARK  236  A    between atoms: _606  and  _607
REMARK  237  A    between atoms: _609  and  _611
REMARK  238  A    between atoms: _611  and  _612
REMARK  239  A    between atoms: _611  and  _614
REMARK  240  A    between atoms: _614  and  _615
REMARK  241  A    between atoms: _615  and  _616
REMARK  242  A    between atoms: _619  and  _621
REMARK  243  A    between atoms: _621  and  _622
REMARK  244  A    between atoms: _621  and  _624
REMARK  245  A    between atoms: _624  and  _625
REMARK  246  A    between atoms: _630  and  _631
REMARK  247  A    between atoms: _633  and  _635
REMARK  248  A    between atoms: _635  and  _636
REMARK  249  A    between atoms: _639  and  _641
REMARK  250  A    between atoms: _641  and  _642
REMARK  251  A    between atoms: _641  and  _644
REMARK  252  A    between atoms: _644  and  _645
REMARK  253  A    between atoms: _649  and  _650
REMARK  254  A    between atoms: _655  and  _657
REMARK  255  A    between atoms: _657  and  _658
REMARK  256  A    between atoms: _657  and  _660
REMARK  257  A    between atoms: _660  and  _661
REMARK  258  A    between atoms: _664  and  _666
REMARK  259  A    between atoms: _666  and  _667
REMARK  260  A    between atoms: _666  and  _669
REMARK  261  A    between atoms: _669  and  _670
REMARK  262  A    between atoms: _670  and  _671
REMARK  263  A    between atoms: _676  and  _678
REMARK  264  A    between atoms: _678  and  _679
REMARK  265  A    between atoms: _678  and  _681
REMARK  266  A    between atoms: _681  and  _682
REMARK  267  A    between atoms: _685  and  _687
REMARK  268  A    between atoms: _687  and  _688
REMARK  269  A    between atoms: _687  and  _690
REMARK  270  A    between atoms: _690  and  _691
REMARK                            x       y       z     vdW  Elec       q    Type
REMARK                         _______ _______ _______ _____ _____    ______ ____
ROOT
ATOM      1  O   HOH     1      40.282  23.292  14.617  0.00  0.00    +0.000 OA
ENDROOT
TORSDOF 0
REMARK  Name = ../refined-set-2016/4loi/4loi_pocket.pdb
REMARK  270 active torsions:
REMARK  status: ('A' for Active; 'I' for Inactive)
REMARK    1  A    between atoms: _1  and  _3
REMARK    2  A    between atoms: _3  and  _4
REMARK    3  A    between atoms: _6  and  _8
REMARK    4  A    between atoms: _8  and  _9
REMARK    5  A    between atoms: _8  and  _11
REMARK    6  A    between atoms: _11  and  _12
REMARK    7  A    between atoms: _15  and  _17
REMARK    8  A    between atoms: _17  and  _18
REMARK    9  A    between atoms: _21  and  _23
REMARK   10  A    between atoms: _23  and  _24
REMARK   11  A    between atoms: _23  and  _26
REMARK   12  A    between atoms: _26  and  _27
REMARK   13  A    between atoms: _37  and  _39
REMARK   14  A    between atoms: _39  and  _40
REMARK   15  A    between atoms: _39  and  _42
REMARK   16  A    between atoms: _42  and  _43
REMARK   17  A    between atoms: _45  and  _47
REMARK   18  A    between atoms: _47  and  _48
REMARK   19  A    between atoms: _47  and  _50
REMARK   20  A    between atoms: _50  and  _51
REMARK   21  A    between atoms: _56  and  _57
REMARK   22  A    between atoms: _59  and  _61
REMARK   23  A    between atoms: _61  and  _62
REMARK   24  A    between atoms: _61  and  _64
REMARK   25  A    between atoms: _64  and  _65
REMARK   26  A    between atoms: _70  and  _71
REMARK   27  A    between atoms: _73  and  _75
REMARK   28  A    between atoms: _75  and  _76
REMARK   29  A    between atoms: _75  and  _78
REMARK   30  A    between atoms: _78  and  _79
REMARK   31  A    between atoms: _82  and  _84
REMARK   32  A    between atoms: _84  and  _85
REMARK   33  A    between atoms: _87  and  _89
REMARK   34  A    between atoms: _89  and  _90
REMARK   35  A    between atoms: _89  and  _92
REMARK   36  A    between atoms: _92  and  _93
REMARK   37  A    between atoms: _98  and  _99
REMARK   38  A    between atoms: _101  and  _103
REMARK   39  A    between atoms: _103  and  _104
REMARK   40  A    between atoms: _103  and  _106
REMARK   41  A    between atoms: _106  and  _107
REMARK   42  A    between atoms: _110  and  _112
REMARK   43  A    between atoms: _112  and  _113
REMARK   44  A    between atoms: _112  and  _115
REMARK   45  A    between atoms: _115  and  _116
REMARK   46  A    between atoms: _116  and  _117
REMARK   47  A    between atoms: _117  and  _118
REMARK   48  A    between atoms: _127  and  _129
REMARK   49  A    between atoms: _129  and  _130
REMARK   50  A    between atoms: _129  and  _132
REMARK   51  A    between atoms: _132  and  _133
REMARK   52  A    between atoms: _136  and  _138
REMARK   53  A    between atoms: _138  and  _139
REMARK   54  A    between atoms: _138  and  _141
REMARK   55  A    between atoms: _141  and  _142
REMARK   56  A    between atoms: _145  and  _147
REMARK   57  A    between atoms: _147  and  _148
REMARK   58  A    between atoms: _147  and  _150
REMARK   59  A    between atoms: _150  and  _151
REMARK   60  A    between atoms: _151  and  _152
REMARK   61  A    between atoms: _157  and  _159
REMARK   62  A    between atoms: _159  and  _160
REMARK   63  A    between atoms: _159  and  _162
REMARK   64  A    between atoms: _162  and  _163
REMARK   65  A    between atoms: _168  and  _170
REMARK   66  A    between atoms: _170  and  _171
REMARK   67  A    between atoms: _174  and  _176
REMARK   68  A    between atoms: _176  and  _177
REMARK   69  A    between atoms: _179  and  _181
REMARK   70  A    between atoms: _181  and  _182
REMARK   71  A    between atoms: _181  and  _184
REMARK   72  A    between atoms: _184  and  _185
REMARK   73  A    between atoms: _188  and  _190
REMARK   74  A    between atoms: _190  and  _191
REMARK   75  A    between atoms: _190  and  _193
REMARK   76  A    between atoms: _193  and  _194
REMARK   77  A    between atoms: _194  and  _195
REMARK   78  A    between atoms: _195  and  _196
REMARK   79  A    between atoms: _205  and  _207
REMARK   80  A    between atoms: _207  and  _208
REMARK   81  A    between atoms: _207  and  _210
REMARK   82  A    between atoms: _213  and  _215
REMARK   83  A    between atoms: _215  and  _216
REMARK   84  A    between atoms: _215  and  _218
REMARK   85  A    between atoms: _218  and  _219
REMARK   86  A    between atoms: _224  and  _225
REMARK   87  A    between atoms: _227  and  _229
REMARK   88  A    between atoms: _229  and  _230
REMARK   89  A    between atoms: _229  and  _232
REMARK   90  A    between atoms: _232  and  _233
REMARK   91  A    between atoms: _235  and  _237
REMARK   92  A    between atoms: _237  and  _238
REMARK   93  A    between atoms: _237  and  _240
REMARK   94  A    between atoms: _240  and  _241
REMARK   95  A    between atoms: _246  and  _248
REMARK   96  A    between atoms: _248  and  _249
REMARK   97  A    between atoms: _248  and  _251
REMARK   98  A    between atoms: _251  and  _252
REMARK   99  A    between atoms: _252  and  _253
REMARK  100  A    between atoms: _256  and  _258
REMARK  101  A    between atoms: _258  and  _259
REMARK  102  A    between atoms: _258  and  _261
REMARK  103  A    between atoms: _261  and  _262
REMARK  104  A    between atoms: _267  and  _268
REMARK  105  A    between atoms: _270  and  _272
REMARK  106  A    between atoms: _272  and  _273
REMARK  107  A    between atoms: _276  and  _278
REMARK  108  A    between atoms: _278  and  _279
REMARK  109  A    between atoms: _278  and  _281
REMARK  110  A    between atoms: _281  and  _282
REMARK  111  A    between atoms: _286  and  _287
REMARK  112  A    between atoms: _292  and  _294
REMARK  113  A    between atoms: _294  and  _295
REMARK  114  A    between atoms: _294  and  _297
REMARK  115  A    between atoms: _297  and  _298
REMARK  116  A    between atoms: _301  and  _303
REMARK  117  A    between atoms: _303  and  _304
REMARK  118  A    between atoms: _303  and  _306
REMARK  119  A    between atoms: _306  and  _307
REMARK  120  A    between atoms: _307  and  _308
REMARK  121  A    between atoms: _313  and  _315
REMARK  122  A    between atoms: _315  and  _316
REMARK  123  A    between atoms: _315  and  _318
REMARK  124  A    between atoms: _318  and  _319
REMARK  125  A    between atoms: _322  and  _324
REMARK  126  A    between atoms: _324  and  _325
REMARK  127  A    between atoms: _324  and  _327
REMARK  128  A    between atoms: _327  and  _328
REMARK  129  A    between atoms: _331  and  _333
REMARK  130  A    between atoms: _333  and  _334
REMARK  131  A    between atoms: _333  and  _336
REMARK  132  A    between atoms: _336  and  _337
REMARK  133  A    between atoms: _343  and  _345
REMARK  134  A    between atoms: _345  and  _346
REMARK  135  A    between atoms: _348  and  _350
REMARK  136  A    between atoms: _350  and  _351
REMARK  137  A    between atoms: _350  and  _353
REMARK  138  A    between atoms: _353  and  _354
REMARK  139  A    between atoms: _357  and  _359
REMARK  140  A    between atoms: _359  and  _360
REMARK  141  A    between atoms: _363  and  _365
REMARK  142  A    between atoms: _365  and  _366
REMARK  143  A    between atoms: _365  and  _368
REMARK  144  A    between atoms: _368  and  _369
REMARK  145  A    between atoms: _379  and  _381
REMARK  146  A    between atoms: _381  and  _382
REMARK  147  A    between atoms: _381  and  _384
REMARK  148  A    between atoms: _384  and  _385
REMARK  149  A    between atoms: _387  and  _389
REMARK  150  A    between atoms: _389  and  _390
REMARK  151  A    between atoms: _389  and  _392
REMARK  152  A    between atoms: _392  and  _393
REMARK  153  A    between atoms: _398  and  _399
REMARK  154  A    between atoms: _401  and  _403
REMARK  155  A    between atoms: _403  and  _404
REMARK  156  A    between atoms: _403  and  _406
REMARK  157  A    between atoms: _406  and  _407
REMARK  158  A    between atoms: _412  and  _413
REMARK  159  A    between atoms: _415  and  _417
REMARK  160  A    between atoms: _417  and  _418
REMARK  161  A    between atoms: _417  and  _420
REMARK  162  A    between atoms: _420  and  _421
REMARK  163  A    between atoms: _424  and  _426
REMARK  164  A    between atoms: _426  and  _427
REMARK  165  A    between atoms: _429  and  _431
REMARK  166  A    between atoms: _431  and  _432
REMARK  167  A    between atoms: _431  and  _434
REMARK  168  A    between atoms: _434  and  _435
REMARK  169  A    between atoms: _440  and  _441
REMARK  170  A    between atoms: _443  and  _445
REMARK  171  A    between atoms: _445  and  _446
REMARK  172  A    between atoms: _445  and  _448
REMARK  173  A    between atoms: _448  and  _449
REMARK  174  A    between atoms: _452  and  _454
REMARK  175  A    between atoms: _454  and  _455
REMARK  176  A    between atoms: _454  and  _457
REMARK  177  A    between atoms: _457  and  _458
REMARK  178  A    between atoms: _458  and  _459
REMARK  179  A    between atoms: _459  and  _460
REMARK  180  A    between atoms: _469  and  _471
REMARK  181  A    between atoms: _471  and  _472
REMARK  182  A    between atoms: _471  and  _474
REMARK  183  A    between atoms: _474  and  _475
REMARK  184  A    between atoms: _478  and  _480
REMARK  185  A    between atoms: _480  and  _481
REMARK  186  A    between atoms: _480  and  _483
REMARK  187  A    between atoms: _483  and  _484
REMARK  188  A    between atoms: _487  and  _489
REMARK  189  A    between atoms: _489  and  _490
REMARK  190  A    between atoms: _489  and  _492
REMARK  191  A    between atoms: _492  and  _493
REMARK  192  A    between atoms: _496  and  _498
REMARK  193  A    between atoms: _498  and  _499
REMARK  194  A    between atoms: _498  and  _501
REMARK  195  A    between atoms: _501  and  _502
REMARK  196  A    between atoms: _505  and  _507
REMARK  197  A    between atoms: _507  and  _508
REMARK  198  A    between atoms: _507  and  _510
REMARK  199  A    between atoms: _510  and  _511
REMARK  200  A    between atoms: _511  and  _512
REMARK  201  A    between atoms: _517  and  _519
REMARK  202  A    between atoms: _519  and  _520
REMARK  203  A    between atoms: _519  and  _522
REMARK  204  A    between atoms: _522  and  _523
REMARK  205  A    between atoms: _528  and  _530
REMARK  206  A    between atoms: _530  and  _531
REMARK  207  A    between atoms: _534  and  _536
REMARK  208  A    between atoms: _536  and  _537
REMARK  209  A    between atoms: _536  and  _539
REMARK  210  A    between atoms: _539  and  _540
REMARK  211  A    between atoms: _543  and  _545
REMARK  212  A    between atoms: _545  and  _546
REMARK  213  A    between atoms: _545  and  _548
REMARK  214  A    between atoms: _548  and  _549
REMARK  215  A    between atoms: _549  and  _550
REMARK  216  A    between atoms: _550  and  _551
REMARK  217  A    between atoms: _560  and  _562
REMARK  218  A    between atoms: _562  and  _563
REMARK  219  A    between atoms: _562  and  _565
REMARK  220  A    between atoms: _568  and  _570
REMARK  221  A    between atoms: _570  and  _571
REMARK  222  A    between atoms: _570  and  _573
REMARK  223  A    between atoms: _573  and  _574
REMARK  224  A    between atoms: _579  and  _580
REMARK  225  A    between atoms: _582  and  _584
REMARK  226  A    between atoms: _584  and  _585
REMARK  227  A    between atoms: _584  and  _587
REMARK  228  A    between atoms: _587  and  _588
REMARK  229  A    between atoms: _590  and  _592
REMARK  230  A    between atoms: _592  and  _593
REMARK  231  A    between atoms: _592  and  _595
REMARK  232  A    between atoms: _595  and  _596
REMARK  233  A    between atoms: _601  and  _603
REMARK  234  A    between atoms: _603  and  _604
REMARK  235  A    between atoms: _603  and  _606
REMARK  236  A    between atoms: _606  and  _607
REMARK  237  A    between atoms: _609  and  _611
REMARK  238  A    between atoms: _611  and  _612
REMARK  239  A    between atoms: _611  and  _614
REMARK  240  A    between atoms: _614  and  _615
REMARK  241  A    between atoms: _615  and  _616
REMARK  242  A    between atoms: _619  and  _621
REMARK  243  A    between atoms: _621  and  _622
REMARK  244  A    between atoms: _621  and  _624
REMARK  245  A    between atoms: _624  and  _625
REMARK  246  A    between atoms: _630  and  _631
REMARK  247  A    between atoms: _633  and  _635
REMARK  248  A    between atoms: _635  and  _636
REMARK  249  A    between atoms: _639  and  _641
REMARK  250  A    between atoms: _641  and  _642
REMARK  251  A    between atoms: _641  and  _644
REMARK  252  A    between atoms: _644  and  _645
REMARK  253  A    between atoms: _649  and  _650
REMARK  254  A    between atoms: _655  and  _657
REMARK  255  A    between atoms: _657  and  _658
REMARK  256  A    between atoms: _657  and  _660
REMARK  257  A    between atoms: _660  and  _661
REMARK  258  A    between atoms: _664  and  _666
REMARK  259  A    between atoms: _666  and  _667
REMARK  260  A    between atoms: _666  and  _669
REMARK  261  A    between atoms: _669  and  _670
REMARK  262  A    between atoms: _670  and  _671
REMARK  263  A    between atoms: _676  and  _678
REMARK  264  A    between atoms: _678  and  _679
REMARK  265  A    between atoms: _678  and  _681
REMARK  266  A    between atoms: _681  and  _682
REMARK  267  A    between atoms: _685  and  _687
REMARK  268  A    between atoms: _687  and  _688
REMARK  269  A    between atoms: _687  and  _690
REMARK  270  A    between atoms: _690  and  _691
REMARK                            x       y       z     vdW  Elec       q    Type
REMARK                         _______ _______ _______ _____ _____    ______ ____
ROOT
ATOM      1  O   HOH     1      45.545  31.929   9.762  0.00  0.00    +0.000 OA
ENDROOT
TORSDOF 0
REMARK  Name = ../refined-set-2016/4loi/4loi_pocket.pdb
REMARK  270 active torsions:
REMARK  status: ('A' for Active; 'I' for Inactive)
REMARK    1  A    between atoms: _1  and  _3
REMARK    2  A    between atoms: _3  and  _4
REMARK    3  A    between atoms: _6  and  _8
REMARK    4  A    between atoms: _8  and  _9
REMARK    5  A    between atoms: _8  and  _11
REMARK    6  A    between atoms: _11  and  _12
REMARK    7  A    between atoms: _15  and  _17
REMARK    8  A    between atoms: _17  and  _18
REMARK    9  A    between atoms: _21  and  _23
REMARK   10  A    between atoms: _23  and  _24
REMARK   11  A    between atoms: _23  and  _26
REMARK   12  A    between atoms: _26  and  _27
REMARK   13  A    between atoms: _37  and  _39
REMARK   14  A    between atoms: _39  and  _40
REMARK   15  A    between atoms: _39  and  _42
REMARK   16  A    between atoms: _42  and  _43
REMARK   17  A    between atoms: _45  and  _47
REMARK   18  A    between atoms: _47  and  _48
REMARK   19  A    between atoms: _47  and  _50
REMARK   20  A    between atoms: _50  and  _51
REMARK   21  A    between atoms: _56  and  _57
REMARK   22  A    between atoms: _59  and  _61
REMARK   23  A    between atoms: _61  and  _62
REMARK   24  A    between atoms: _61  and  _64
REMARK   25  A    between atoms: _64  and  _65
REMARK   26  A    between atoms: _70  and  _71
REMARK   27  A    between atoms: _73  and  _75
REMARK   28  A    between atoms: _75  and  _76
REMARK   29  A    between atoms: _75  and  _78
REMARK   30  A    between atoms: _78  and  _79
REMARK   31  A    between atoms: _82  and  _84
REMARK   32  A    between atoms: _84  and  _85
REMARK   33  A    between atoms: _87  and  _89
REMARK   34  A    between atoms: _89  and  _90
REMARK   35  A    between atoms: _89  and  _92
REMARK   36  A    between atoms: _92  and  _93
REMARK   37  A    between atoms: _98  and  _99
REMARK   38  A    between atoms: _101  and  _103
REMARK   39  A    between atoms: _103  and  _104
REMARK   40  A    between atoms: _103  and  _106
REMARK   41  A    between atoms: _106  and  _107
REMARK   42  A    between atoms: _110  and  _112
REMARK   43  A    between atoms: _112  and  _113
REMARK   44  A    between atoms: _112  and  _115
REMARK   45  A    between atoms: _115  and  _116
REMARK   46  A    between atoms: _116  and  _117
REMARK   47  A    between atoms: _117  and  _118
REMARK   48  A    between atoms: _127  and  _129
REMARK   49  A    between atoms: _129  and  _130
REMARK   50  A    between atoms: _129  and  _132
REMARK   51  A    between atoms: _132  and  _133
REMARK   52  A    between atoms: _136  and  _138
REMARK   53  A    between atoms: _138  and  _139
REMARK   54  A    between atoms: _138  and  _141
REMARK   55  A    between atoms: _141  and  _142
REMARK   56  A    between atoms: _145  and  _147
REMARK   57  A    between atoms: _147  and  _148
REMARK   58  A    between atoms: _147  and  _150
REMARK   59  A    between atoms: _150  and  _151
REMARK   60  A    between atoms: _151  and  _152
REMARK   61  A    between atoms: _157  and  _159
REMARK   62  A    between atoms: _159  and  _160
REMARK   63  A    between atoms: _159  and  _162
REMARK   64  A    between atoms: _162  and  _163
REMARK   65  A    between atoms: _168  and  _170
REMARK   66  A    between atoms: _170  and  _171
REMARK   67  A    between atoms: _174  and  _176
REMARK   68  A    between atoms: _176  and  _177
REMARK   69  A    between atoms: _179  and  _181
REMARK   70  A    between atoms: _181  and  _182
REMARK   71  A    between atoms: _181  and  _184
REMARK   72  A    between atoms: _184  and  _185
REMARK   73  A    between atoms: _188  and  _190
REMARK   74  A    between atoms: _190  and  _191
REMARK   75  A    between atoms: _190  and  _193
REMARK   76  A    between atoms: _193  and  _194
REMARK   77  A    between atoms: _194  and  _195
REMARK   78  A    between atoms: _195  and  _196
REMARK   79  A    between atoms: _205  and  _207
REMARK   80  A    between atoms: _207  and  _208
REMARK   81  A    between atoms: _207  and  _210
REMARK   82  A    between atoms: _213  and  _215
REMARK   83  A    between atoms: _215  and  _216
REMARK   84  A    between atoms: _215  and  _218
REMARK   85  A    between atoms: _218  and  _219
REMARK   86  A    between atoms: _224  and  _225
REMARK   87  A    between atoms: _227  and  _229
REMARK   88  A    between atoms: _229  and  _230
REMARK   89  A    between atoms: _229  and  _232
REMARK   90  A    between atoms: _232  and  _233
REMARK   91  A    between atoms: _235  and  _237
REMARK   92  A    between atoms: _237  and  _238
REMARK   93  A    between atoms: _237  and  _240
REMARK   94  A    between atoms: _240  and  _241
REMARK   95  A    between atoms: _246  and  _248
REMARK   96  A    between atoms: _248  and  _249
REMARK   97  A    between atoms: _248  and  _251
REMARK   98  A    between atoms: _251  and  _252
REMARK   99  A    between atoms: _252  and  _253
REMARK  100  A    between atoms: _256  and  _258
REMARK  101  A    between atoms: _258  and  _259
REMARK  102  A    between atoms: _258  and  _261
REMARK  103  A    between atoms: _261  and  _262
REMARK  104  A    between atoms: _267  and  _268
REMARK  105  A    between atoms: _270  and  _272
REMARK  106  A    between atoms: _272  and  _273
REMARK  107  A    between atoms: _276  and  _278
REMARK  108  A    between atoms: _278  and  _279
REMARK  109  A    between atoms: _278  and  _281
REMARK  110  A    between atoms: _281  and  _282
REMARK  111  A    between atoms: _286  and  _287
REMARK  112  A    between atoms: _292  and  _294
REMARK  113  A    between atoms: _294  and  _295
REMARK  114  A    between atoms: _294  and  _297
REMARK  115  A    between atoms: _297  and  _298
REMARK  116  A    between atoms: _301  and  _303
REMARK  117  A    between atoms: _303  and  _304
REMARK  118  A    between atoms: _303  and  _306
REMARK  119  A    between atoms: _306  and  _307
REMARK  120  A    between atoms: _307  and  _308
REMARK  121  A    between atoms: _313  and  _315
REMARK  122  A    between atoms: _315  and  _316
REMARK  123  A    between atoms: _315  and  _318
REMARK  124  A    between atoms: _318  and  _319
REMARK  125  A    between atoms: _322  and  _324
REMARK  126  A    between atoms: _324  and  _325
REMARK  127  A    between atoms: _324  and  _327
REMARK  128  A    between atoms: _327  and  _328
REMARK  129  A    between atoms: _331  and  _333
REMARK  130  A    between atoms: _333  and  _334
REMARK  131  A    between atoms: _333  and  _336
REMARK  132  A    between atoms: _336  and  _337
REMARK  133  A    between atoms: _343  and  _345
REMARK  134  A    between atoms: _345  and  _346
REMARK  135  A    between atoms: _348  and  _350
REMARK  136  A    between atoms: _350  and  _351
REMARK  137  A    between atoms: _350  and  _353
REMARK  138  A    between atoms: _353  and  _354
REMARK  139  A    between atoms: _357  and  _359
REMARK  140  A    between atoms: _359  and  _360
REMARK  141  A    between atoms: _363  and  _365
REMARK  142  A    between atoms: _365  and  _366
REMARK  143  A    between atoms: _365  and  _368
REMARK  144  A    between atoms: _368  and  _369
REMARK  145  A    between atoms: _379  and  _381
REMARK  146  A    between atoms: _381  and  _382
REMARK  147  A    between atoms: _381  and  _384
REMARK  148  A    between atoms: _384  and  _385
REMARK  149  A    between atoms: _387  and  _389
REMARK  150  A    between atoms: _389  and  _390
REMARK  151  A    between atoms: _389  and  _392
REMARK  152  A    between atoms: _392  and  _393
REMARK  153  A    between atoms: _398  and  _399
REMARK  154  A    between atoms: _401  and  _403
REMARK  155  A    between atoms: _403  and  _404
REMARK  156  A    between atoms: _403  and  _406
REMARK  157  A    between atoms: _406  and  _407
REMARK  158  A    between atoms: _412  and  _413
REMARK  159  A    between atoms: _415  and  _417
REMARK  160  A    between atoms: _417  and  _418
REMARK  161  A    between atoms: _417  and  _420
REMARK  162  A    between atoms: _420  and  _421
REMARK  163  A    between atoms: _424  and  _426
REMARK  164  A    between atoms: _426  and  _427
REMARK  165  A    between atoms: _429  and  _431
REMARK  166  A    between atoms: _431  and  _432
REMARK  167  A    between atoms: _431  and  _434
REMARK  168  A    between atoms: _434  and  _435
REMARK  169  A    between atoms: _440  and  _441
REMARK  170  A    between atoms: _443  and  _445
REMARK  171  A    between atoms: _445  and  _446
REMARK  172  A    between atoms: _445  and  _448
REMARK  173  A    between atoms: _448  and  _449
REMARK  174  A    between atoms: _452  and  _454
REMARK  175  A    between atoms: _454  and  _455
REMARK  176  A    between atoms: _454  and  _457
REMARK  177  A    between atoms: _457  and  _458
REMARK  178  A    between atoms: _458  and  _459
REMARK  179  A    between atoms: _459  and  _460
REMARK  180  A    between atoms: _469  and  _471
REMARK  181  A    between atoms: _471  and  _472
REMARK  182  A    between atoms: _471  and  _474
REMARK  183  A    between atoms: _474  and  _475
REMARK  184  A    between atoms: _478  and  _480
REMARK  185  A    between atoms: _480  and  _481
REMARK  186  A    between atoms: _480  and  _483
REMARK  187  A    between atoms: _483  and  _484
REMARK  188  A    between atoms: _487  and  _489
REMARK  189  A    between atoms: _489  and  _490
REMARK  190  A    between atoms: _489  and  _492
REMARK  191  A    between atoms: _492  and  _493
REMARK  192  A    between atoms: _496  and  _498
REMARK  193  A    between atoms: _498  and  _499
REMARK  194  A    between atoms: _498  and  _501
REMARK  195  A    between atoms: _501  and  _502
REMARK  196  A    between atoms: _505  and  _507
REMARK  197  A    between atoms: _507  and  _508
REMARK  198  A    between atoms: _507  and  _510
REMARK  199  A    between atoms: _510  and  _511
REMARK  200  A    between atoms: _511  and  _512
REMARK  201  A    between atoms: _517  and  _519
REMARK  202  A    between atoms: _519  and  _520
REMARK  203  A    between atoms: _519  and  _522
REMARK  204  A    between atoms: _522  and  _523
REMARK  205  A    between atoms: _528  and  _530
REMARK  206  A    between atoms: _530  and  _531
REMARK  207  A    between atoms: _534  and  _536
REMARK  208  A    between atoms: _536  and  _537
REMARK  209  A    between atoms: _536  and  _539
REMARK  210  A    between atoms: _539  and  _540
REMARK  211  A    between atoms: _543  and  _545
REMARK  212  A    between atoms: _545  and  _546
REMARK  213  A    between atoms: _545  and  _548
REMARK  214  A    between atoms: _548  and  _549
REMARK  215  A    between atoms: _549  and  _550
REMARK  216  A    between atoms: _550  and  _551
REMARK  217  A    between atoms: _560  and  _562
REMARK  218  A    between atoms: _562  and  _563
REMARK  219  A    between atoms: _562  and  _565
REMARK  220  A    between atoms: _568  and  _570
REMARK  221  A    between atoms: _570  and  _571
REMARK  222  A    between atoms: _570  and  _573
REMARK  223  A    between atoms: _573  and  _574
REMARK  224  A    between atoms: _579  and  _580
REMARK  225  A    between atoms: _582  and  _584
REMARK  226  A    between atoms: _584  and  _585
REMARK  227  A    between atoms: _584  and  _587
REMARK  228  A    between atoms: _587  and  _588
REMARK  229  A    between atoms: _590  and  _592
REMARK  230  A    between atoms: _592  and  _593
REMARK  231  A    between atoms: _592  and  _595
REMARK  232  A    between atoms: _595  and  _596
REMARK  233  A    between atoms: _601  and  _603
REMARK  234  A    between atoms: _603  and  _604
REMARK  235  A    between atoms: _603  and  _606
REMARK  236  A    between atoms: _606  and  _607
REMARK  237  A    between atoms: _609  and  _611
REMARK  238  A    between atoms: _611  and  _612
REMARK  239  A    between atoms: _611  and  _614
REMARK  240  A    between atoms: _614  and  _615
REMARK  241  A    between atoms: _615  and  _616
REMARK  242  A    between atoms: _619  and  _621
REMARK  243  A    between atoms: _621  and  _622
REMARK  244  A    between atoms: _621  and  _624
REMARK  245  A    between atoms: _624  and  _625
REMARK  246  A    between atoms: _630  and  _631
REMARK  247  A    between atoms: _633  and  _635
REMARK  248  A    between atoms: _635  and  _636
REMARK  249  A    between atoms: _639  and  _641
REMARK  250  A    between atoms: _641  and  _642
REMARK  251  A    between atoms: _641  and  _644
REMARK  252  A    between atoms: _644  and  _645
REMARK  253  A    between atoms: _649  and  _650
REMARK  254  A    between atoms: _655  and  _657
REMARK  255  A    between atoms: _657  and  _658
REMARK  256  A    between atoms: _657  and  _660
REMARK  257  A    between atoms: _660  and  _661
REMARK  258  A    between atoms: _664  and  _666
REMARK  259  A    between atoms: _666  and  _667
REMARK  260  A    between atoms: _666  and  _669
REMARK  261  A    between atoms: _669  and  _670
REMARK  262  A    between atoms: _670  and  _671
REMARK  263  A    between atoms: _676  and  _678
REMARK  264  A    between atoms: _678  and  _679
REMARK  265  A    between atoms: _678  and  _681
REMARK  266  A    between atoms: _681  and  _682
REMARK  267  A    between atoms: _685  and  _687
REMARK  268  A    between atoms: _687  and  _688
REMARK  269  A    between atoms: _687  and  _690
REMARK  270  A    between atoms: _690  and  _691
REMARK                            x       y       z     vdW  Elec       q    Type
REMARK                         _______ _______ _______ _____ _____    ______ ____
ROOT
ATOM      1  O   HOH     1      48.741  28.821  13.825  0.00  0.00    +0.000 OA
ENDROOT
TORSDOF 0
REMARK  Name = ../refined-set-2016/4loi/4loi_pocket.pdb
REMARK  270 active torsions:
REMARK  status: ('A' for Active; 'I' for Inactive)
REMARK    1  A    between atoms: _1  and  _3
REMARK    2  A    between atoms: _3  and  _4
REMARK    3  A    between atoms: _6  and  _8
REMARK    4  A    between atoms: _8  and  _9
REMARK    5  A    between atoms: _8  and  _11
REMARK    6  A    between atoms: _11  and  _12
REMARK    7  A    between atoms: _15  and  _17
REMARK    8  A    between atoms: _17  and  _18
REMARK    9  A    between atoms: _21  and  _23
REMARK   10  A    between atoms: _23  and  _24
REMARK   11  A    between atoms: _23  and  _26
REMARK   12  A    between atoms: _26  and  _27
REMARK   13  A    between atoms: _37  and  _39
REMARK   14  A    between atoms: _39  and  _40
REMARK   15  A    between atoms: _39  and  _42
REMARK   16  A    between atoms: _42  and  _43
REMARK   17  A    between atoms: _45  and  _47
REMARK   18  A    between atoms: _47  and  _48
REMARK   19  A    between atoms: _47  and  _50
REMARK   20  A    between atoms: _50  and  _51
REMARK   21  A    between atoms: _56  and  _57
REMARK   22  A    between atoms: _59  and  _61
REMARK   23  A    between atoms: _61  and  _62
REMARK   24  A    between atoms: _61  and  _64
REMARK   25  A    between atoms: _64  and  _65
REMARK   26  A    between atoms: _70  and  _71
REMARK   27  A    between atoms: _73  and  _75
REMARK   28  A    between atoms: _75  and  _76
REMARK   29  A    between atoms: _75  and  _78
REMARK   30  A    between atoms: _78  and  _79
REMARK   31  A    between atoms: _82  and  _84
REMARK   32  A    between atoms: _84  and  _85
REMARK   33  A    between atoms: _87  and  _89
REMARK   34  A    between atoms: _89  and  _90
REMARK   35  A    between atoms: _89  and  _92
REMARK   36  A    between atoms: _92  and  _93
REMARK   37  A    between atoms: _98  and  _99
REMARK   38  A    between atoms: _101  and  _103
REMARK   39  A    between atoms: _103  and  _104
REMARK   40  A    between atoms: _103  and  _106
REMARK   41  A    between atoms: _106  and  _107
REMARK   42  A    between atoms: _110  and  _112
REMARK   43  A    between atoms: _112  and  _113
REMARK   44  A    between atoms: _112  and  _115
REMARK   45  A    between atoms: _115  and  _116
REMARK   46  A    between atoms: _116  and  _117
REMARK   47  A    between atoms: _117  and  _118
REMARK   48  A    between atoms: _127  and  _129
REMARK   49  A    between atoms: _129  and  _130
REMARK   50  A    between atoms: _129  and  _132
REMARK   51  A    between atoms: _132  and  _133
REMARK   52  A    between atoms: _136  and  _138
REMARK   53  A    between atoms: _138  and  _139
REMARK   54  A    between atoms: _138  and  _141
REMARK   55  A    between atoms: _141  and  _142
REMARK   56  A    between atoms: _145  and  _147
REMARK   57  A    between atoms: _147  and  _148
REMARK   58  A    between atoms: _147  and  _150
REMARK   59  A    between atoms: _150  and  _151
REMARK   60  A    between atoms: _151  and  _152
REMARK   61  A    between atoms: _157  and  _159
REMARK   62  A    between atoms: _159  and  _160
REMARK   63  A    between atoms: _159  and  _162
REMARK   64  A    between atoms: _162  and  _163
REMARK   65  A    between atoms: _168  and  _170
REMARK   66  A    between atoms: _170  and  _171
REMARK   67  A    between atoms: _174  and  _176
REMARK   68  A    between atoms: _176  and  _177
REMARK   69  A    between atoms: _179  and  _181
REMARK   70  A    between atoms: _181  and  _182
REMARK   71  A    between atoms: _181  and  _184
REMARK   72  A    between atoms: _184  and  _185
REMARK   73  A    between atoms: _188  and  _190
REMARK   74  A    between atoms: _190  and  _191
REMARK   75  A    between atoms: _190  and  _193
REMARK   76  A    between atoms: _193  and  _194
REMARK   77  A    between atoms: _194  and  _195
REMARK   78  A    between atoms: _195  and  _196
REMARK   79  A    between atoms: _205  and  _207
REMARK   80  A    between atoms: _207  and  _208
REMARK   81  A    between atoms: _207  and  _210
REMARK   82  A    between atoms: _213  and  _215
REMARK   83  A    between atoms: _215  and  _216
REMARK   84  A    between atoms: _215  and  _218
REMARK   85  A    between atoms: _218  and  _219
REMARK   86  A    between atoms: _224  and  _225
REMARK   87  A    between atoms: _227  and  _229
REMARK   88  A    between atoms: _229  and  _230
REMARK   89  A    between atoms: _229  and  _232
REMARK   90  A    between atoms: _232  and  _233
REMARK   91  A    between atoms: _235  and  _237
REMARK   92  A    between atoms: _237  and  _238
REMARK   93  A    between atoms: _237  and  _240
REMARK   94  A    between atoms: _240  and  _241
REMARK   95  A    between atoms: _246  and  _248
REMARK   96  A    between atoms: _248  and  _249
REMARK   97  A    between atoms: _248  and  _251
REMARK   98  A    between atoms: _251  and  _252
REMARK   99  A    between atoms: _252  and  _253
REMARK  100  A    between atoms: _256  and  _258
REMARK  101  A    between atoms: _258  and  _259
REMARK  102  A    between atoms: _258  and  _261
REMARK  103  A    between atoms: _261  and  _262
REMARK  104  A    between atoms: _267  and  _268
REMARK  105  A    between atoms: _270  and  _272
REMARK  106  A    between atoms: _272  and  _273
REMARK  107  A    between atoms: _276  and  _278
REMARK  108  A    between atoms: _278  and  _279
REMARK  109  A    between atoms: _278  and  _281
REMARK  110  A    between atoms: _281  and  _282
REMARK  111  A    between atoms: _286  and  _287
REMARK  112  A    between atoms: _292  and  _294
REMARK  113  A    between atoms: _294  and  _295
REMARK  114  A    between atoms: _294  and  _297
REMARK  115  A    between atoms: _297  and  _298
REMARK  116  A    between atoms: _301  and  _303
REMARK  117  A    between atoms: _303  and  _304
REMARK  118  A    between atoms: _303  and  _306
REMARK  119  A    between atoms: _306  and  _307
REMARK  120  A    between atoms: _307  and  _308
REMARK  121  A    between atoms: _313  and  _315
REMARK  122  A    between atoms: _315  and  _316
REMARK  123  A    between atoms: _315  and  _318
REMARK  124  A    between atoms: _318  and  _319
REMARK  125  A    between atoms: _322  and  _324
REMARK  126  A    between atoms: _324  and  _325
REMARK  127  A    between atoms: _324  and  _327
REMARK  128  A    between atoms: _327  and  _328
REMARK  129  A    between atoms: _331  and  _333
REMARK  130  A    between atoms: _333  and  _334
REMARK  131  A    between atoms: _333  and  _336
REMARK  132  A    between atoms: _336  and  _337
REMARK  133  A    between atoms: _343  and  _345
REMARK  134  A    between atoms: _345  and  _346
REMARK  135  A    between atoms: _348  and  _350
REMARK  136  A    between atoms: _350  and  _351
REMARK  137  A    between atoms: _350  and  _353
REMARK  138  A    between atoms: _353  and  _354
REMARK  139  A    between atoms: _357  and  _359
REMARK  140  A    between atoms: _359  and  _360
REMARK  141  A    between atoms: _363  and  _365
REMARK  142  A    between atoms: _365  and  _366
REMARK  143  A    between atoms: _365  and  _368
REMARK  144  A    between atoms: _368  and  _369
REMARK  145  A    between atoms: _379  and  _381
REMARK  146  A    between atoms: _381  and  _382
REMARK  147  A    between atoms: _381  and  _384
REMARK  148  A    between atoms: _384  and  _385
REMARK  149  A    between atoms: _387  and  _389
REMARK  150  A    between atoms: _389  and  _390
REMARK  151  A    between atoms: _389  and  _392
REMARK  152  A    between atoms: _392  and  _393
REMARK  153  A    between atoms: _398  and  _399
REMARK  154  A    between atoms: _401  and  _403
REMARK  155  A    between atoms: _403  and  _404
REMARK  156  A    between atoms: _403  and  _406
REMARK  157  A    between atoms: _406  and  _407
REMARK  158  A    between atoms: _412  and  _413
REMARK  159  A    between atoms: _415  and  _417
REMARK  160  A    between atoms: _417  and  _418
REMARK  161  A    between atoms: _417  and  _420
REMARK  162  A    between atoms: _420  and  _421
REMARK  163  A    between atoms: _424  and  _426
REMARK  164  A    between atoms: _426  and  _427
REMARK  165  A    between atoms: _429  and  _431
REMARK  166  A    between atoms: _431  and  _432
REMARK  167  A    between atoms: _431  and  _434
REMARK  168  A    between atoms: _434  and  _435
REMARK  169  A    between atoms: _440  and  _441
REMARK  170  A    between atoms: _443  and  _445
REMARK  171  A    between atoms: _445  and  _446
REMARK  172  A    between atoms: _445  and  _448
REMARK  173  A    between atoms: _448  and  _449
REMARK  174  A    between atoms: _452  and  _454
REMARK  175  A    between atoms: _454  and  _455
REMARK  176  A    between atoms: _454  and  _457
REMARK  177  A    between atoms: _457  and  _458
REMARK  178  A    between atoms: _458  and  _459
REMARK  179  A    between atoms: _459  and  _460
REMARK  180  A    between atoms: _469  and  _471
REMARK  181  A    between atoms: _471  and  _472
REMARK  182  A    between atoms: _471  and  _474
REMARK  183  A    between atoms: _474  and  _475
REMARK  184  A    between atoms: _478  and  _480
REMARK  185  A    between atoms: _480  and  _481
REMARK  186  A    between atoms: _480  and  _483
REMARK  187  A    between atoms: _483  and  _484
REMARK  188  A    between atoms: _487  and  _489
REMARK  189  A    between atoms: _489  and  _490
REMARK  190  A    between atoms: _489  and  _492
REMARK  191  A    between atoms: _492  and  _493
REMARK  192  A    between atoms: _496  and  _498
REMARK  193  A    between atoms: _498  and  _499
REMARK  194  A    between atoms: _498  and  _501
REMARK  195  A    between atoms: _501  and  _502
REMARK  196  A    between atoms: _505  and  _507
REMARK  197  A    between atoms: _507  and  _508
REMARK  198  A    between atoms: _507  and  _510
REMARK  199  A    between atoms: _510  and  _511
REMARK  200  A    between atoms: _511  and  _512
REMARK  201  A    between atoms: _517  and  _519
REMARK  202  A    between atoms: _519  and  _520
REMARK  203  A    between atoms: _519  and  _522
REMARK  204  A    between atoms: _522  and  _523
REMARK  205  A    between atoms: _528  and  _530
REMARK  206  A    between atoms: _530  and  _531
REMARK  207  A    between atoms: _534  and  _536
REMARK  208  A    between atoms: _536  and  _537
REMARK  209  A    between atoms: _536  and  _539
REMARK  210  A    between atoms: _539  and  _540
REMARK  211  A    between atoms: _543  and  _545
REMARK  212  A    between atoms: _545  and  _546
REMARK  213  A    between atoms: _545  and  _548
REMARK  214  A    between atoms: _548  and  _549
REMARK  215  A    between atoms: _549  and  _550
REMARK  216  A    between atoms: _550  and  _551
REMARK  217  A    between atoms: _560  and  _562
REMARK  218  A    between atoms: _562  and  _563
REMARK  219  A    between atoms: _562  and  _565
REMARK  220  A    between atoms: _568  and  _570
REMARK  221  A    between atoms: _570  and  _571
REMARK  222  A    between atoms: _570  and  _573
REMARK  223  A    between atoms: _573  and  _574
REMARK  224  A    between atoms: _579  and  _580
REMARK  225  A    between atoms: _582  and  _584
REMARK  226  A    between atoms: _584  and  _585
REMARK  227  A    between atoms: _584  and  _587
REMARK  228  A    between atoms: _587  and  _588
REMARK  229  A    between atoms: _590  and  _592
REMARK  230  A    between atoms: _592  and  _593
REMARK  231  A    between atoms: _592  and  _595
REMARK  232  A    between atoms: _595  and  _596
REMARK  233  A    between atoms: _601  and  _603
REMARK  234  A    between atoms: _603  and  _604
REMARK  235  A    between atoms: _603  and  _606
REMARK  236  A    between atoms: _606  and  _607
REMARK  237  A    between atoms: _609  and  _611
REMARK  238  A    between atoms: _611  and  _612
REMARK  239  A    between atoms: _611  and  _614
REMARK  240  A    between atoms: _614  and  _615
REMARK  241  A    between atoms: _615  and  _616
REMARK  242  A    between atoms: _619  and  _621
REMARK  243  A    between atoms: _621  and  _622
REMARK  244  A    between atoms: _621  and  _624
REMARK  245  A    between atoms: _624  and  _625
REMARK  246  A    between atoms: _630  and  _631
REMARK  247  A    between atoms: _633  and  _635
REMARK  248  A    between atoms: _635  and  _636
REMARK  249  A    between atoms: _639  and  _641
REMARK  250  A    between atoms: _641  and  _642
REMARK  251  A    between atoms: _641  and  _644
REMARK  252  A    between atoms: _644  and  _645
REMARK  253  A    between atoms: _649  and  _650
REMARK  254  A    between atoms: _655  and  _657
REMARK  255  A    between atoms: _657  and  _658
REMARK  256  A    between atoms: _657  and  _660
REMARK  257  A    between atoms: _660  and  _661
REMARK  258  A    between atoms: _664  and  _666
REMARK  259  A    between atoms: _666  and  _667
REMARK  260  A    between atoms: _666  and  _669
REMARK  261  A    between atoms: _669  and  _670
REMARK  262  A    between atoms: _670  and  _671
REMARK  263  A    between atoms: _676  and  _678
REMARK  264  A    between atoms: _678  and  _679
REMARK  265  A    between atoms: _678  and  _681
REMARK  266  A    between atoms: _681  and  _682
REMARK  267  A    between atoms: _685  and  _687
REMARK  268  A    between atoms: _687  and  _688
REMARK  269  A    between atoms: _687  and  _690
REMARK  270  A    between atoms: _690  and  _691
REMARK                            x       y       z     vdW  Elec       q    Type
REMARK                         _______ _______ _______ _____ _____    ______ ____
ROOT
ATOM      1  O   HOH     1      44.694  17.777  14.801  0.00  0.00    +0.000 OA
ENDROOT
TORSDOF 0
REMARK  Name = ../refined-set-2016/4loi/4loi_pocket.pdb
REMARK  270 active torsions:
REMARK  status: ('A' for Active; 'I' for Inactive)
REMARK    1  A    between atoms: _1  and  _3
REMARK    2  A    between atoms: _3  and  _4
REMARK    3  A    between atoms: _6  and  _8
REMARK    4  A    between atoms: _8  and  _9
REMARK    5  A    between atoms: _8  and  _11
REMARK    6  A    between atoms: _11  and  _12
REMARK    7  A    between atoms: _15  and  _17
REMARK    8  A    between atoms: _17  and  _18
REMARK    9  A    between atoms: _21  and  _23
REMARK   10  A    between atoms: _23  and  _24
REMARK   11  A    between atoms: _23  and  _26
REMARK   12  A    between atoms: _26  and  _27
REMARK   13  A    between atoms: _37  and  _39
REMARK   14  A    between atoms: _39  and  _40
REMARK   15  A    between atoms: _39  and  _42
REMARK   16  A    between atoms: _42  and  _43
REMARK   17  A    between atoms: _45  and  _47
REMARK   18  A    between atoms: _47  and  _48
REMARK   19  A    between atoms: _47  and  _50
REMARK   20  A    between atoms: _50  and  _51
REMARK   21  A    between atoms: _56  and  _57
REMARK   22  A    between atoms: _59  and  _61
REMARK   23  A    between atoms: _61  and  _62
REMARK   24  A    between atoms: _61  and  _64
REMARK   25  A    between atoms: _64  and  _65
REMARK   26  A    between atoms: _70  and  _71
REMARK   27  A    between atoms: _73  and  _75
REMARK   28  A    between atoms: _75  and  _76
REMARK   29  A    between atoms: _75  and  _78
REMARK   30  A    between atoms: _78  and  _79
REMARK   31  A    between atoms: _82  and  _84
REMARK   32  A    between atoms: _84  and  _85
REMARK   33  A    between atoms: _87  and  _89
REMARK   34  A    between atoms: _89  and  _90
REMARK   35  A    between atoms: _89  and  _92
REMARK   36  A    between atoms: _92  and  _93
REMARK   37  A    between atoms: _98  and  _99
REMARK   38  A    between atoms: _101  and  _103
REMARK   39  A    between atoms: _103  and  _104
REMARK   40  A    between atoms: _103  and  _106
REMARK   41  A    between atoms: _106  and  _107
REMARK   42  A    between atoms: _110  and  _112
REMARK   43  A    between atoms: _112  and  _113
REMARK   44  A    between atoms: _112  and  _115
REMARK   45  A    between atoms: _115  and  _116
REMARK   46  A    between atoms: _116  and  _117
REMARK   47  A    between atoms: _117  and  _118
REMARK   48  A    between atoms: _127  and  _129
REMARK   49  A    between atoms: _129  and  _130
REMARK   50  A    between atoms: _129  and  _132
REMARK   51  A    between atoms: _132  and  _133
REMARK   52  A    between atoms: _136  and  _138
REMARK   53  A    between atoms: _138  and  _139
REMARK   54  A    between atoms: _138  and  _141
REMARK   55  A    between atoms: _141  and  _142
REMARK   56  A    between atoms: _145  and  _147
REMARK   57  A    between atoms: _147  and  _148
REMARK   58  A    between atoms: _147  and  _150
REMARK   59  A    between atoms: _150  and  _151
REMARK   60  A    between atoms: _151  and  _152
REMARK   61  A    between atoms: _157  and  _159
REMARK   62  A    between atoms: _159  and  _160
REMARK   63  A    between atoms: _159  and  _162
REMARK   64  A    between atoms: _162  and  _163
REMARK   65  A    between atoms: _168  and  _170
REMARK   66  A    between atoms: _170  and  _171
REMARK   67  A    between atoms: _174  and  _176
REMARK   68  A    between atoms: _176  and  _177
REMARK   69  A    between atoms: _179  and  _181
REMARK   70  A    between atoms: _181  and  _182
REMARK   71  A    between atoms: _181  and  _184
REMARK   72  A    between atoms: _184  and  _185
REMARK   73  A    between atoms: _188  and  _190
REMARK   74  A    between atoms: _190  and  _191
REMARK   75  A    between atoms: _190  and  _193
REMARK   76  A    between atoms: _193  and  _194
REMARK   77  A    between atoms: _194  and  _195
REMARK   78  A    between atoms: _195  and  _196
REMARK   79  A    between atoms: _205  and  _207
REMARK   80  A    between atoms: _207  and  _208
REMARK   81  A    between atoms: _207  and  _210
REMARK   82  A    between atoms: _213  and  _215
REMARK   83  A    between atoms: _215  and  _216
REMARK   84  A    between atoms: _215  and  _218
REMARK   85  A    between atoms: _218  and  _219
REMARK   86  A    between atoms: _224  and  _225
REMARK   87  A    between atoms: _227  and  _229
REMARK   88  A    between atoms: _229  and  _230
REMARK   89  A    between atoms: _229  and  _232
REMARK   90  A    between atoms: _232  and  _233
REMARK   91  A    between atoms: _235  and  _237
REMARK   92  A    between atoms: _237  and  _238
REMARK   93  A    between atoms: _237  and  _240
REMARK   94  A    between atoms: _240  and  _241
REMARK   95  A    between atoms: _246  and  _248
REMARK   96  A    between atoms: _248  and  _249
REMARK   97  A    between atoms: _248  and  _251
REMARK   98  A    between atoms: _251  and  _252
REMARK   99  A    between atoms: _252  and  _253
REMARK  100  A    between atoms: _256  and  _258
REMARK  101  A    between atoms: _258  and  _259
REMARK  102  A    between atoms: _258  and  _261
REMARK  103  A    between atoms: _261  and  _262
REMARK  104  A    between atoms: _267  and  _268
REMARK  105  A    between atoms: _270  and  _272
REMARK  106  A    between atoms: _272  and  _273
REMARK  107  A    between atoms: _276  and  _278
REMARK  108  A    between atoms: _278  and  _279
REMARK  109  A    between atoms: _278  and  _281
REMARK  110  A    between atoms: _281  and  _282
REMARK  111  A    between atoms: _286  and  _287
REMARK  112  A    between atoms: _292  and  _294
REMARK  113  A    between atoms: _294  and  _295
REMARK  114  A    between atoms: _294  and  _297
REMARK  115  A    between atoms: _297  and  _298
REMARK  116  A    between atoms: _301  and  _303
REMARK  117  A    between atoms: _303  and  _304
REMARK  118  A    between atoms: _303  and  _306
REMARK  119  A    between atoms: _306  and  _307
REMARK  120  A    between atoms: _307  and  _308
REMARK  121  A    between atoms: _313  and  _315
REMARK  122  A    between atoms: _315  and  _316
REMARK  123  A    between atoms: _315  and  _318
REMARK  124  A    between atoms: _318  and  _319
REMARK  125  A    between atoms: _322  and  _324
REMARK  126  A    between atoms: _324  and  _325
REMARK  127  A    between atoms: _324  and  _327
REMARK  128  A    between atoms: _327  and  _328
REMARK  129  A    between atoms: _331  and  _333
REMARK  130  A    between atoms: _333  and  _334
REMARK  131  A    between atoms: _333  and  _336
REMARK  132  A    between atoms: _336  and  _337
REMARK  133  A    between atoms: _343  and  _345
REMARK  134  A    between atoms: _345  and  _346
REMARK  135  A    between atoms: _348  and  _350
REMARK  136  A    between atoms: _350  and  _351
REMARK  137  A    between atoms: _350  and  _353
REMARK  138  A    between atoms: _353  and  _354
REMARK  139  A    between atoms: _357  and  _359
REMARK  140  A    between atoms: _359  and  _360
REMARK  141  A    between atoms: _363  and  _365
REMARK  142  A    between atoms: _365  and  _366
REMARK  143  A    between atoms: _365  and  _368
REMARK  144  A    between atoms: _368  and  _369
REMARK  145  A    between atoms: _379  and  _381
REMARK  146  A    between atoms: _381  and  _382
REMARK  147  A    between atoms: _381  and  _384
REMARK  148  A    between atoms: _384  and  _385
REMARK  149  A    between atoms: _387  and  _389
REMARK  150  A    between atoms: _389  and  _390
REMARK  151  A    between atoms: _389  and  _392
REMARK  152  A    between atoms: _392  and  _393
REMARK  153  A    between atoms: _398  and  _399
REMARK  154  A    between atoms: _401  and  _403
REMARK  155  A    between atoms: _403  and  _404
REMARK  156  A    between atoms: _403  and  _406
REMARK  157  A    between atoms: _406  and  _407
REMARK  158  A    between atoms: _412  and  _413
REMARK  159  A    between atoms: _415  and  _417
REMARK  160  A    between atoms: _417  and  _418
REMARK  161  A    between atoms: _417  and  _420
REMARK  162  A    between atoms: _420  and  _421
REMARK  163  A    between atoms: _424  and  _426
REMARK  164  A    between atoms: _426  and  _427
REMARK  165  A    between atoms: _429  and  _431
REMARK  166  A    between atoms: _431  and  _432
REMARK  167  A    between atoms: _431  and  _434
REMARK  168  A    between atoms: _434  and  _435
REMARK  169  A    between atoms: _440  and  _441
REMARK  170  A    between atoms: _443  and  _445
REMARK  171  A    between atoms: _445  and  _446
REMARK  172  A    between atoms: _445  and  _448
REMARK  173  A    between atoms: _448  and  _449
REMARK  174  A    between atoms: _452  and  _454
REMARK  175  A    between atoms: _454  and  _455
REMARK  176  A    between atoms: _454  and  _457
REMARK  177  A    between atoms: _457  and  _458
REMARK  178  A    between atoms: _458  and  _459
REMARK  179  A    between atoms: _459  and  _460
REMARK  180  A    between atoms: _469  and  _471
REMARK  181  A    between atoms: _471  and  _472
REMARK  182  A    between atoms: _471  and  _474
REMARK  183  A    between atoms: _474  and  _475
REMARK  184  A    between atoms: _478  and  _480
REMARK  185  A    between atoms: _480  and  _481
REMARK  186  A    between atoms: _480  and  _483
REMARK  187  A    between atoms: _483  and  _484
REMARK  188  A    between atoms: _487  and  _489
REMARK  189  A    between atoms: _489  and  _490
REMARK  190  A    between atoms: _489  and  _492
REMARK  191  A    between atoms: _492  and  _493
REMARK  192  A    between atoms: _496  and  _498
REMARK  193  A    between atoms: _498  and  _499
REMARK  194  A    between atoms: _498  and  _501
REMARK  195  A    between atoms: _501  and  _502
REMARK  196  A    between atoms: _505  and  _507
REMARK  197  A    between atoms: _507  and  _508
REMARK  198  A    between atoms: _507  and  _510
REMARK  199  A    between atoms: _510  and  _511
REMARK  200  A    between atoms: _511  and  _512
REMARK  201  A    between atoms: _517  and  _519
REMARK  202  A    between atoms: _519  and  _520
REMARK  203  A    between atoms: _519  and  _522
REMARK  204  A    between atoms: _522  and  _523
REMARK  205  A    between atoms: _528  and  _530
REMARK  206  A    between atoms: _530  and  _531
REMARK  207  A    between atoms: _534  and  _536
REMARK  208  A    between atoms: _536  and  _537
REMARK  209  A    between atoms: _536  and  _539
REMARK  210  A    between atoms: _539  and  _540
REMARK  211  A    between atoms: _543  and  _545
REMARK  212  A    between atoms: _545  and  _546
REMARK  213  A    between atoms: _545  and  _548
REMARK  214  A    between atoms: _548  and  _549
REMARK  215  A    between atoms: _549  and  _550
REMARK  216  A    between atoms: _550  and  _551
REMARK  217  A    between atoms: _560  and  _562
REMARK  218  A    between atoms: _562  and  _563
REMARK  219  A    between atoms: _562  and  _565
REMARK  220  A    between atoms: _568  and  _570
REMARK  221  A    between atoms: _570  and  _571
REMARK  222  A    between atoms: _570  and  _573
REMARK  223  A    between atoms: _573  and  _574
REMARK  224  A    between atoms: _579  and  _580
REMARK  225  A    between atoms: _582  and  _584
REMARK  226  A    between atoms: _584  and  _585
REMARK  227  A    between atoms: _584  and  _587
REMARK  228  A    between atoms: _587  and  _588
REMARK  229  A    between atoms: _590  and  _592
REMARK  230  A    between atoms: _592  and  _593
REMARK  231  A    between atoms: _592  and  _595
REMARK  232  A    between atoms: _595  and  _596
REMARK  233  A    between atoms: _601  and  _603
REMARK  234  A    between atoms: _603  and  _604
REMARK  235  A    between atoms: _603  and  _606
REMARK  236  A    between atoms: _606  and  _607
REMARK  237  A    between atoms: _609  and  _611
REMARK  238  A    between atoms: _611  and  _612
REMARK  239  A    between atoms: _611  and  _614
REMARK  240  A    between atoms: _614  and  _615
REMARK  241  A    between atoms: _615  and  _616
REMARK  242  A    between atoms: _619  and  _621
REMARK  243  A    between atoms: _621  and  _622
REMARK  244  A    between atoms: _621  and  _624
REMARK  245  A    between atoms: _624  and  _625
REMARK  246  A    between atoms: _630  and  _631
REMARK  247  A    between atoms: _633  and  _635
REMARK  248  A    between atoms: _635  and  _636
REMARK  249  A    between atoms: _639  and  _641
REMARK  250  A    between atoms: _641  and  _642
REMARK  251  A    between atoms: _641  and  _644
REMARK  252  A    between atoms: _644  and  _645
REMARK  253  A    between atoms: _649  and  _650
REMARK  254  A    between atoms: _655  and  _657
REMARK  255  A    between atoms: _657  and  _658
REMARK  256  A    between atoms: _657  and  _660
REMARK  257  A    between atoms: _660  and  _661
REMARK  258  A    between atoms: _664  and  _666
REMARK  259  A    between atoms: _666  and  _667
REMARK  260  A    between atoms: _666  and  _669
REMARK  261  A    between atoms: _669  and  _670
REMARK  262  A    between atoms: _670  and  _671
REMARK  263  A    between atoms: _676  and  _678
REMARK  264  A    between atoms: _678  and  _679
REMARK  265  A    between atoms: _678  and  _681
REMARK  266  A    between atoms: _681  and  _682
REMARK  267  A    between atoms: _685  and  _687
REMARK  268  A    between atoms: _687  and  _688
REMARK  269  A    between atoms: _687  and  _690
REMARK  270  A    between atoms: _690  and  _691
REMARK                            x       y       z     vdW  Elec       q    Type
REMARK                         _______ _______ _______ _____ _____    ______ ____
ROOT
ATOM      1  O   HOH     1      45.731  23.242  14.069  0.00  0.00    +0.000 OA
ENDROOT
TORSDOF 0
REMARK  Name = ../refined-set-2016/4loi/4loi_pocket.pdb
REMARK  270 active torsions:
REMARK  status: ('A' for Active; 'I' for Inactive)
REMARK    1  A    between atoms: _1  and  _3
REMARK    2  A    between atoms: _3  and  _4
REMARK    3  A    between atoms: _6  and  _8
REMARK    4  A    between atoms: _8  and  _9
REMARK    5  A    between atoms: _8  and  _11
REMARK    6  A    between atoms: _11  and  _12
REMARK    7  A    between atoms: _15  and  _17
REMARK    8  A    between atoms: _17  and  _18
REMARK    9  A    between atoms: _21  and  _23
REMARK   10  A    between atoms: _23  and  _24
REMARK   11  A    between atoms: _23  and  _26
REMARK   12  A    between atoms: _26  and  _27
REMARK   13  A    between atoms: _37  and  _39
REMARK   14  A    between atoms: _39  and  _40
REMARK   15  A    between atoms: _39  and  _42
REMARK   16  A    between atoms: _42  and  _43
REMARK   17  A    between atoms: _45  and  _47
REMARK   18  A    between atoms: _47  and  _48
REMARK   19  A    between atoms: _47  and  _50
REMARK   20  A    between atoms: _50  and  _51
REMARK   21  A    between atoms: _56  and  _57
REMARK   22  A    between atoms: _59  and  _61
REMARK   23  A    between atoms: _61  and  _62
REMARK   24  A    between atoms: _61  and  _64
REMARK   25  A    between atoms: _64  and  _65
REMARK   26  A    between atoms: _70  and  _71
REMARK   27  A    between atoms: _73  and  _75
REMARK   28  A    between atoms: _75  and  _76
REMARK   29  A    between atoms: _75  and  _78
REMARK   30  A    between atoms: _78  and  _79
REMARK   31  A    between atoms: _82  and  _84
REMARK   32  A    between atoms: _84  and  _85
REMARK   33  A    between atoms: _87  and  _89
REMARK   34  A    between atoms: _89  and  _90
REMARK   35  A    between atoms: _89  and  _92
REMARK   36  A    between atoms: _92  and  _93
REMARK   37  A    between atoms: _98  and  _99
REMARK   38  A    between atoms: _101  and  _103
REMARK   39  A    between atoms: _103  and  _104
REMARK   40  A    between atoms: _103  and  _106
REMARK   41  A    between atoms: _106  and  _107
REMARK   42  A    between atoms: _110  and  _112
REMARK   43  A    between atoms: _112  and  _113
REMARK   44  A    between atoms: _112  and  _115
REMARK   45  A    between atoms: _115  and  _116
REMARK   46  A    between atoms: _116  and  _117
REMARK   47  A    between atoms: _117  and  _118
REMARK   48  A    between atoms: _127  and  _129
REMARK   49  A    between atoms: _129  and  _130
REMARK   50  A    between atoms: _129  and  _132
REMARK   51  A    between atoms: _132  and  _133
REMARK   52  A    between atoms: _136  and  _138
REMARK   53  A    between atoms: _138  and  _139
REMARK   54  A    between atoms: _138  and  _141
REMARK   55  A    between atoms: _141  and  _142
REMARK   56  A    between atoms: _145  and  _147
REMARK   57  A    between atoms: _147  and  _148
REMARK   58  A    between atoms: _147  and  _150
REMARK   59  A    between atoms: _150  and  _151
REMARK   60  A    between atoms: _151  and  _152
REMARK   61  A    between atoms: _157  and  _159
REMARK   62  A    between atoms: _159  and  _160
REMARK   63  A    between atoms: _159  and  _162
REMARK   64  A    between atoms: _162  and  _163
REMARK   65  A    between atoms: _168  and  _170
REMARK   66  A    between atoms: _170  and  _171
REMARK   67  A    between atoms: _174  and  _176
REMARK   68  A    between atoms: _176  and  _177
REMARK   69  A    between atoms: _179  and  _181
REMARK   70  A    between atoms: _181  and  _182
REMARK   71  A    between atoms: _181  and  _184
REMARK   72  A    between atoms: _184  and  _185
REMARK   73  A    between atoms: _188  and  _190
REMARK   74  A    between atoms: _190  and  _191
REMARK   75  A    between atoms: _190  and  _193
REMARK   76  A    between atoms: _193  and  _194
REMARK   77  A    between atoms: _194  and  _195
REMARK   78  A    between atoms: _195  and  _196
REMARK   79  A    between atoms: _205  and  _207
REMARK   80  A    between atoms: _207  and  _208
REMARK   81  A    between atoms: _207  and  _210
REMARK   82  A    between atoms: _213  and  _215
REMARK   83  A    between atoms: _215  and  _216
REMARK   84  A    between atoms: _215  and  _218
REMARK   85  A    between atoms: _218  and  _219
REMARK   86  A    between atoms: _224  and  _225
REMARK   87  A    between atoms: _227  and  _229
REMARK   88  A    between atoms: _229  and  _230
REMARK   89  A    between atoms: _229  and  _232
REMARK   90  A    between atoms: _232  and  _233
REMARK   91  A    between atoms: _235  and  _237
REMARK   92  A    between atoms: _237  and  _238
REMARK   93  A    between atoms: _237  and  _240
REMARK   94  A    between atoms: _240  and  _241
REMARK   95  A    between atoms: _246  and  _248
REMARK   96  A    between atoms: _248  and  _249
REMARK   97  A    between atoms: _248  and  _251
REMARK   98  A    between atoms: _251  and  _252
REMARK   99  A    between atoms: _252  and  _253
REMARK  100  A    between atoms: _256  and  _258
REMARK  101  A    between atoms: _258  and  _259
REMARK  102  A    between atoms: _258  and  _261
REMARK  103  A    between atoms: _261  and  _262
REMARK  104  A    between atoms: _267  and  _268
REMARK  105  A    between atoms: _270  and  _272
REMARK  106  A    between atoms: _272  and  _273
REMARK  107  A    between atoms: _276  and  _278
REMARK  108  A    between atoms: _278  and  _279
REMARK  109  A    between atoms: _278  and  _281
REMARK  110  A    between atoms: _281  and  _282
REMARK  111  A    between atoms: _286  and  _287
REMARK  112  A    between atoms: _292  and  _294
REMARK  113  A    between atoms: _294  and  _295
REMARK  114  A    between atoms: _294  and  _297
REMARK  115  A    between atoms: _297  and  _298
REMARK  116  A    between atoms: _301  and  _303
REMARK  117  A    between atoms: _303  and  _304
REMARK  118  A    between atoms: _303  and  _306
REMARK  119  A    between atoms: _306  and  _307
REMARK  120  A    between atoms: _307  and  _308
REMARK  121  A    between atoms: _313  and  _315
REMARK  122  A    between atoms: _315  and  _316
REMARK  123  A    between atoms: _315  and  _318
REMARK  124  A    between atoms: _318  and  _319
REMARK  125  A    between atoms: _322  and  _324
REMARK  126  A    between atoms: _324  and  _325
REMARK  127  A    between atoms: _324  and  _327
REMARK  128  A    between atoms: _327  and  _328
REMARK  129  A    between atoms: _331  and  _333
REMARK  130  A    between atoms: _333  and  _334
REMARK  131  A    between atoms: _333  and  _336
REMARK  132  A    between atoms: _336  and  _337
REMARK  133  A    between atoms: _343  and  _345
REMARK  134  A    between atoms: _345  and  _346
REMARK  135  A    between atoms: _348  and  _350
REMARK  136  A    between atoms: _350  and  _351
REMARK  137  A    between atoms: _350  and  _353
REMARK  138  A    between atoms: _353  and  _354
REMARK  139  A    between atoms: _357  and  _359
REMARK  140  A    between atoms: _359  and  _360
REMARK  141  A    between atoms: _363  and  _365
REMARK  142  A    between atoms: _365  and  _366
REMARK  143  A    between atoms: _365  and  _368
REMARK  144  A    between atoms: _368  and  _369
REMARK  145  A    between atoms: _379  and  _381
REMARK  146  A    between atoms: _381  and  _382
REMARK  147  A    between atoms: _381  and  _384
REMARK  148  A    between atoms: _384  and  _385
REMARK  149  A    between atoms: _387  and  _389
REMARK  150  A    between atoms: _389  and  _390
REMARK  151  A    between atoms: _389  and  _392
REMARK  152  A    between atoms: _392  and  _393
REMARK  153  A    between atoms: _398  and  _399
REMARK  154  A    between atoms: _401  and  _403
REMARK  155  A    between atoms: _403  and  _404
REMARK  156  A    between atoms: _403  and  _406
REMARK  157  A    between atoms: _406  and  _407
REMARK  158  A    between atoms: _412  and  _413
REMARK  159  A    between atoms: _415  and  _417
REMARK  160  A    between atoms: _417  and  _418
REMARK  161  A    between atoms: _417  and  _420
REMARK  162  A    between atoms: _420  and  _421
REMARK  163  A    between atoms: _424  and  _426
REMARK  164  A    between atoms: _426  and  _427
REMARK  165  A    between atoms: _429  and  _431
REMARK  166  A    between atoms: _431  and  _432
REMARK  167  A    between atoms: _431  and  _434
REMARK  168  A    between atoms: _434  and  _435
REMARK  169  A    between atoms: _440  and  _441
REMARK  170  A    between atoms: _443  and  _445
REMARK  171  A    between atoms: _445  and  _446
REMARK  172  A    between atoms: _445  and  _448
REMARK  173  A    between atoms: _448  and  _449
REMARK  174  A    between atoms: _452  and  _454
REMARK  175  A    between atoms: _454  and  _455
REMARK  176  A    between atoms: _454  and  _457
REMARK  177  A    between atoms: _457  and  _458
REMARK  178  A    between atoms: _458  and  _459
REMARK  179  A    between atoms: _459  and  _460
REMARK  180  A    between atoms: _469  and  _471
REMARK  181  A    between atoms: _471  and  _472
REMARK  182  A    between atoms: _471  and  _474
REMARK  183  A    between atoms: _474  and  _475
REMARK  184  A    between atoms: _478  and  _480
REMARK  185  A    between atoms: _480  and  _481
REMARK  186  A    between atoms: _480  and  _483
REMARK  187  A    between atoms: _483  and  _484
REMARK  188  A    between atoms: _487  and  _489
REMARK  189  A    between atoms: _489  and  _490
REMARK  190  A    between atoms: _489  and  _492
REMARK  191  A    between atoms: _492  and  _493
REMARK  192  A    between atoms: _496  and  _498
REMARK  193  A    between atoms: _498  and  _499
REMARK  194  A    between atoms: _498  and  _501
REMARK  195  A    between atoms: _501  and  _502
REMARK  196  A    between atoms: _505  and  _507
REMARK  197  A    between atoms: _507  and  _508
REMARK  198  A    between atoms: _507  and  _510
REMARK  199  A    between atoms: _510  and  _511
REMARK  200  A    between atoms: _511  and  _512
REMARK  201  A    between atoms: _517  and  _519
REMARK  202  A    between atoms: _519  and  _520
REMARK  203  A    between atoms: _519  and  _522
REMARK  204  A    between atoms: _522  and  _523
REMARK  205  A    between atoms: _528  and  _530
REMARK  206  A    between atoms: _530  and  _531
REMARK  207  A    between atoms: _534  and  _536
REMARK  208  A    between atoms: _536  and  _537
REMARK  209  A    between atoms: _536  and  _539
REMARK  210  A    between atoms: _539  and  _540
REMARK  211  A    between atoms: _543  and  _545
REMARK  212  A    between atoms: _545  and  _546
REMARK  213  A    between atoms: _545  and  _548
REMARK  214  A    between atoms: _548  and  _549
REMARK  215  A    between atoms: _549  and  _550
REMARK  216  A    between atoms: _550  and  _551
REMARK  217  A    between atoms: _560  and  _562
REMARK  218  A    between atoms: _562  and  _563
REMARK  219  A    between atoms: _562  and  _565
REMARK  220  A    between atoms: _568  and  _570
REMARK  221  A    between atoms: _570  and  _571
REMARK  222  A    between atoms: _570  and  _573
REMARK  223  A    between atoms: _573  and  _574
REMARK  224  A    between atoms: _579  and  _580
REMARK  225  A    between atoms: _582  and  _584
REMARK  226  A    between atoms: _584  and  _585
REMARK  227  A    between atoms: _584  and  _587
REMARK  228  A    between atoms: _587  and  _588
REMARK  229  A    between atoms: _590  and  _592
REMARK  230  A    between atoms: _592  and  _593
REMARK  231  A    between atoms: _592  and  _595
REMARK  232  A    between atoms: _595  and  _596
REMARK  233  A    between atoms: _601  and  _603
REMARK  234  A    between atoms: _603  and  _604
REMARK  235  A    between atoms: _603  and  _606
REMARK  236  A    between atoms: _606  and  _607
REMARK  237  A    between atoms: _609  and  _611
REMARK  238  A    between atoms: _611  and  _612
REMARK  239  A    between atoms: _611  and  _614
REMARK  240  A    between atoms: _614  and  _615
REMARK  241  A    between atoms: _615  and  _616
REMARK  242  A    between atoms: _619  and  _621
REMARK  243  A    between atoms: _621  and  _622
REMARK  244  A    between atoms: _621  and  _624
REMARK  245  A    between atoms: _624  and  _625
REMARK  246  A    between atoms: _630  and  _631
REMARK  247  A    between atoms: _633  and  _635
REMARK  248  A    between atoms: _635  and  _636
REMARK  249  A    between atoms: _639  and  _641
REMARK  250  A    between atoms: _641  and  _642
REMARK  251  A    between atoms: _641  and  _644
REMARK  252  A    between atoms: _644  and  _645
REMARK  253  A    between atoms: _649  and  _650
REMARK  254  A    between atoms: _655  and  _657
REMARK  255  A    between atoms: _657  and  _658
REMARK  256  A    between atoms: _657  and  _660
REMARK  257  A    between atoms: _660  and  _661
REMARK  258  A    between atoms: _664  and  _666
REMARK  259  A    between atoms: _666  and  _667
REMARK  260  A    between atoms: _666  and  _669
REMARK  261  A    between atoms: _669  and  _670
REMARK  262  A    between atoms: _670  and  _671
REMARK  263  A    between atoms: _676  and  _678
REMARK  264  A    between atoms: _678  and  _679
REMARK  265  A    between atoms: _678  and  _681
REMARK  266  A    between atoms: _681  and  _682
REMARK  267  A    between atoms: _685  and  _687
REMARK  268  A    between atoms: _687  and  _688
REMARK  269  A    between atoms: _687  and  _690
REMARK  270  A    between atoms: _690  and  _691
REMARK                            x       y       z     vdW  Elec       q    Type
REMARK                         _______ _______ _______ _____ _____    ______ ____
ROOT
ATOM      1  O   HOH     1      48.407  24.658  15.138  0.00  0.00    +0.000 OA
ENDROOT
TORSDOF 0
REMARK  Name = ../refined-set-2016/4loi/4loi_pocket.pdb
REMARK  270 active torsions:
REMARK  status: ('A' for Active; 'I' for Inactive)
REMARK    1  A    between atoms: _1  and  _3
REMARK    2  A    between atoms: _3  and  _4
REMARK    3  A    between atoms: _6  and  _8
REMARK    4  A    between atoms: _8  and  _9
REMARK    5  A    between atoms: _8  and  _11
REMARK    6  A    between atoms: _11  and  _12
REMARK    7  A    between atoms: _15  and  _17
REMARK    8  A    between atoms: _17  and  _18
REMARK    9  A    between atoms: _21  and  _23
REMARK   10  A    between atoms: _23  and  _24
REMARK   11  A    between atoms: _23  and  _26
REMARK   12  A    between atoms: _26  and  _27
REMARK   13  A    between atoms: _37  and  _39
REMARK   14  A    between atoms: _39  and  _40
REMARK   15  A    between atoms: _39  and  _42
REMARK   16  A    between atoms: _42  and  _43
REMARK   17  A    between atoms: _45  and  _47
REMARK   18  A    between atoms: _47  and  _48
REMARK   19  A    between atoms: _47  and  _50
REMARK   20  A    between atoms: _50  and  _51
REMARK   21  A    between atoms: _56  and  _57
REMARK   22  A    between atoms: _59  and  _61
REMARK   23  A    between atoms: _61  and  _62
REMARK   24  A    between atoms: _61  and  _64
REMARK   25  A    between atoms: _64  and  _65
REMARK   26  A    between atoms: _70  and  _71
REMARK   27  A    between atoms: _73  and  _75
REMARK   28  A    between atoms: _75  and  _76
REMARK   29  A    between atoms: _75  and  _78
REMARK   30  A    between atoms: _78  and  _79
REMARK   31  A    between atoms: _82  and  _84
REMARK   32  A    between atoms: _84  and  _85
REMARK   33  A    between atoms: _87  and  _89
REMARK   34  A    between atoms: _89  and  _90
REMARK   35  A    between atoms: _89  and  _92
REMARK   36  A    between atoms: _92  and  _93
REMARK   37  A    between atoms: _98  and  _99
REMARK   38  A    between atoms: _101  and  _103
REMARK   39  A    between atoms: _103  and  _104
REMARK   40  A    between atoms: _103  and  _106
REMARK   41  A    between atoms: _106  and  _107
REMARK   42  A    between atoms: _110  and  _112
REMARK   43  A    between atoms: _112  and  _113
REMARK   44  A    between atoms: _112  and  _115
REMARK   45  A    between atoms: _115  and  _116
REMARK   46  A    between atoms: _116  and  _117
REMARK   47  A    between atoms: _117  and  _118
REMARK   48  A    between atoms: _127  and  _129
REMARK   49  A    between atoms: _129  and  _130
REMARK   50  A    between atoms: _129  and  _132
REMARK   51  A    between atoms: _132  and  _133
REMARK   52  A    between atoms: _136  and  _138
REMARK   53  A    between atoms: _138  and  _139
REMARK   54  A    between atoms: _138  and  _141
REMARK   55  A    between atoms: _141  and  _142
REMARK   56  A    between atoms: _145  and  _147
REMARK   57  A    between atoms: _147  and  _148
REMARK   58  A    between atoms: _147  and  _150
REMARK   59  A    between atoms: _150  and  _151
REMARK   60  A    between atoms: _151  and  _152
REMARK   61  A    between atoms: _157  and  _159
REMARK   62  A    between atoms: _159  and  _160
REMARK   63  A    between atoms: _159  and  _162
REMARK   64  A    between atoms: _162  and  _163
REMARK   65  A    between atoms: _168  and  _170
REMARK   66  A    between atoms: _170  and  _171
REMARK   67  A    between atoms: _174  and  _176
REMARK   68  A    between atoms: _176  and  _177
REMARK   69  A    between atoms: _179  and  _181
REMARK   70  A    between atoms: _181  and  _182
REMARK   71  A    between atoms: _181  and  _184
REMARK   72  A    between atoms: _184  and  _185
REMARK   73  A    between atoms: _188  and  _190
REMARK   74  A    between atoms: _190  and  _191
REMARK   75  A    between atoms: _190  and  _193
REMARK   76  A    between atoms: _193  and  _194
REMARK   77  A    between atoms: _194  and  _195
REMARK   78  A    between atoms: _195  and  _196
REMARK   79  A    between atoms: _205  and  _207
REMARK   80  A    between atoms: _207  and  _208
REMARK   81  A    between atoms: _207  and  _210
REMARK   82  A    between atoms: _213  and  _215
REMARK   83  A    between atoms: _215  and  _216
REMARK   84  A    between atoms: _215  and  _218
REMARK   85  A    between atoms: _218  and  _219
REMARK   86  A    between atoms: _224  and  _225
REMARK   87  A    between atoms: _227  and  _229
REMARK   88  A    between atoms: _229  and  _230
REMARK   89  A    between atoms: _229  and  _232
REMARK   90  A    between atoms: _232  and  _233
REMARK   91  A    between atoms: _235  and  _237
REMARK   92  A    between atoms: _237  and  _238
REMARK   93  A    between atoms: _237  and  _240
REMARK   94  A    between atoms: _240  and  _241
REMARK   95  A    between atoms: _246  and  _248
REMARK   96  A    between atoms: _248  and  _249
REMARK   97  A    between atoms: _248  and  _251
REMARK   98  A    between atoms: _251  and  _252
REMARK   99  A    between atoms: _252  and  _253
REMARK  100  A    between atoms: _256  and  _258
REMARK  101  A    between atoms: _258  and  _259
REMARK  102  A    between atoms: _258  and  _261
REMARK  103  A    between atoms: _261  and  _262
REMARK  104  A    between atoms: _267  and  _268
REMARK  105  A    between atoms: _270  and  _272
REMARK  106  A    between atoms: _272  and  _273
REMARK  107  A    between atoms: _276  and  _278
REMARK  108  A    between atoms: _278  and  _279
REMARK  109  A    between atoms: _278  and  _281
REMARK  110  A    between atoms: _281  and  _282
REMARK  111  A    between atoms: _286  and  _287
REMARK  112  A    between atoms: _292  and  _294
REMARK  113  A    between atoms: _294  and  _295
REMARK  114  A    between atoms: _294  and  _297
REMARK  115  A    between atoms: _297  and  _298
REMARK  116  A    between atoms: _301  and  _303
REMARK  117  A    between atoms: _303  and  _304
REMARK  118  A    between atoms: _303  and  _306
REMARK  119  A    between atoms: _306  and  _307
REMARK  120  A    between atoms: _307  and  _308
REMARK  121  A    between atoms: _313  and  _315
REMARK  122  A    between atoms: _315  and  _316
REMARK  123  A    between atoms: _315  and  _318
REMARK  124  A    between atoms: _318  and  _319
REMARK  125  A    between atoms: _322  and  _324
REMARK  126  A    between atoms: _324  and  _325
REMARK  127  A    between atoms: _324  and  _327
REMARK  128  A    between atoms: _327  and  _328
REMARK  129  A    between atoms: _331  and  _333
REMARK  130  A    between atoms: _333  and  _334
REMARK  131  A    between atoms: _333  and  _336
REMARK  132  A    between atoms: _336  and  _337
REMARK  133  A    between atoms: _343  and  _345
REMARK  134  A    between atoms: _345  and  _346
REMARK  135  A    between atoms: _348  and  _350
REMARK  136  A    between atoms: _350  and  _351
REMARK  137  A    between atoms: _350  and  _353
REMARK  138  A    between atoms: _353  and  _354
REMARK  139  A    between atoms: _357  and  _359
REMARK  140  A    between atoms: _359  and  _360
REMARK  141  A    between atoms: _363  and  _365
REMARK  142  A    between atoms: _365  and  _366
REMARK  143  A    between atoms: _365  and  _368
REMARK  144  A    between atoms: _368  and  _369
REMARK  145  A    between atoms: _379  and  _381
REMARK  146  A    between atoms: _381  and  _382
REMARK  147  A    between atoms: _381  and  _384
REMARK  148  A    between atoms: _384  and  _385
REMARK  149  A    between atoms: _387  and  _389
REMARK  150  A    between atoms: _389  and  _390
REMARK  151  A    between atoms: _389  and  _392
REMARK  152  A    between atoms: _392  and  _393
REMARK  153  A    between atoms: _398  and  _399
REMARK  154  A    between atoms: _401  and  _403
REMARK  155  A    between atoms: _403  and  _404
REMARK  156  A    between atoms: _403  and  _406
REMARK  157  A    between atoms: _406  and  _407
REMARK  158  A    between atoms: _412  and  _413
REMARK  159  A    between atoms: _415  and  _417
REMARK  160  A    between atoms: _417  and  _418
REMARK  161  A    between atoms: _417  and  _420
REMARK  162  A    between atoms: _420  and  _421
REMARK  163  A    between atoms: _424  and  _426
REMARK  164  A    between atoms: _426  and  _427
REMARK  165  A    between atoms: _429  and  _431
REMARK  166  A    between atoms: _431  and  _432
REMARK  167  A    between atoms: _431  and  _434
REMARK  168  A    between atoms: _434  and  _435
REMARK  169  A    between atoms: _440  and  _441
REMARK  170  A    between atoms: _443  and  _445
REMARK  171  A    between atoms: _445  and  _446
REMARK  172  A    between atoms: _445  and  _448
REMARK  173  A    between atoms: _448  and  _449
REMARK  174  A    between atoms: _452  and  _454
REMARK  175  A    between atoms: _454  and  _455
REMARK  176  A    between atoms: _454  and  _457
REMARK  177  A    between atoms: _457  and  _458
REMARK  178  A    between atoms: _458  and  _459
REMARK  179  A    between atoms: _459  and  _460
REMARK  180  A    between atoms: _469  and  _471
REMARK  181  A    between atoms: _471  and  _472
REMARK  182  A    between atoms: _471  and  _474
REMARK  183  A    between atoms: _474  and  _475
REMARK  184  A    between atoms: _478  and  _480
REMARK  185  A    between atoms: _480  and  _481
REMARK  186  A    between atoms: _480  and  _483
REMARK  187  A    between atoms: _483  and  _484
REMARK  188  A    between atoms: _487  and  _489
REMARK  189  A    between atoms: _489  and  _490
REMARK  190  A    between atoms: _489  and  _492
REMARK  191  A    between atoms: _492  and  _493
REMARK  192  A    between atoms: _496  and  _498
REMARK  193  A    between atoms: _498  and  _499
REMARK  194  A    between atoms: _498  and  _501
REMARK  195  A    between atoms: _501  and  _502
REMARK  196  A    between atoms: _505  and  _507
REMARK  197  A    between atoms: _507  and  _508
REMARK  198  A    between atoms: _507  and  _510
REMARK  199  A    between atoms: _510  and  _511
REMARK  200  A    between atoms: _511  and  _512
REMARK  201  A    between atoms: _517  and  _519
REMARK  202  A    between atoms: _519  and  _520
REMARK  203  A    between atoms: _519  and  _522
REMARK  204  A    between atoms: _522  and  _523
REMARK  205  A    between atoms: _528  and  _530
REMARK  206  A    between atoms: _530  and  _531
REMARK  207  A    between atoms: _534  and  _536
REMARK  208  A    between atoms: _536  and  _537
REMARK  209  A    between atoms: _536  and  _539
REMARK  210  A    between atoms: _539  and  _540
REMARK  211  A    between atoms: _543  and  _545
REMARK  212  A    between atoms: _545  and  _546
REMARK  213  A    between atoms: _545  and  _548
REMARK  214  A    between atoms: _548  and  _549
REMARK  215  A    between atoms: _549  and  _550
REMARK  216  A    between atoms: _550  and  _551
REMARK  217  A    between atoms: _560  and  _562
REMARK  218  A    between atoms: _562  and  _563
REMARK  219  A    between atoms: _562  and  _565
REMARK  220  A    between atoms: _568  and  _570
REMARK  221  A    between atoms: _570  and  _571
REMARK  222  A    between atoms: _570  and  _573
REMARK  223  A    between atoms: _573  and  _574
REMARK  224  A    between atoms: _579  and  _580
REMARK  225  A    between atoms: _582  and  _584
REMARK  226  A    between atoms: _584  and  _585
REMARK  227  A    between atoms: _584  and  _587
REMARK  228  A    between atoms: _587  and  _588
REMARK  229  A    between atoms: _590  and  _592
REMARK  230  A    between atoms: _592  and  _593
REMARK  231  A    between atoms: _592  and  _595
REMARK  232  A    between atoms: _595  and  _596
REMARK  233  A    between atoms: _601  and  _603
REMARK  234  A    between atoms: _603  and  _604
REMARK  235  A    between atoms: _603  and  _606
REMARK  236  A    between atoms: _606  and  _607
REMARK  237  A    between atoms: _609  and  _611
REMARK  238  A    between atoms: _611  and  _612
REMARK  239  A    between atoms: _611  and  _614
REMARK  240  A    between atoms: _614  and  _615
REMARK  241  A    between atoms: _615  and  _616
REMARK  242  A    between atoms: _619  and  _621
REMARK  243  A    between atoms: _621  and  _622
REMARK  244  A    between atoms: _621  and  _624
REMARK  245  A    between atoms: _624  and  _625
REMARK  246  A    between atoms: _630  and  _631
REMARK  247  A    between atoms: _633  and  _635
REMARK  248  A    between atoms: _635  and  _636
REMARK  249  A    between atoms: _639  and  _641
REMARK  250  A    between atoms: _641  and  _642
REMARK  251  A    between atoms: _641  and  _644
REMARK  252  A    between atoms: _644  and  _645
REMARK  253  A    between atoms: _649  and  _650
REMARK  254  A    between atoms: _655  and  _657
REMARK  255  A    between atoms: _657  and  _658
REMARK  256  A    between atoms: _657  and  _660
REMARK  257  A    between atoms: _660  and  _661
REMARK  258  A    between atoms: _664  and  _666
REMARK  259  A    between atoms: _666  and  _667
REMARK  260  A    between atoms: _666  and  _669
REMARK  261  A    between atoms: _669  and  _670
REMARK  262  A    between atoms: _670  and  _671
REMARK  263  A    between atoms: _676  and  _678
REMARK  264  A    between atoms: _678  and  _679
REMARK  265  A    between atoms: _678  and  _681
REMARK  266  A    between atoms: _681  and  _682
REMARK  267  A    between atoms: _685  and  _687
REMARK  268  A    between atoms: _687  and  _688
REMARK  269  A    between atoms: _687  and  _690
REMARK  270  A    between atoms: _690  and  _691
REMARK                            x       y       z     vdW  Elec       q    Type
REMARK                         _______ _______ _______ _____ _____    ______ ____
ROOT
ATOM      1  O   HOH     1      38.078  34.380  14.517  0.00  0.00    +0.000 OA
ENDROOT
TORSDOF 0
REMARK  Name = ../refined-set-2016/4loi/4loi_pocket.pdb
REMARK  270 active torsions:
REMARK  status: ('A' for Active; 'I' for Inactive)
REMARK    1  A    between atoms: _1  and  _3
REMARK    2  A    between atoms: _3  and  _4
REMARK    3  A    between atoms: _6  and  _8
REMARK    4  A    between atoms: _8  and  _9
REMARK    5  A    between atoms: _8  and  _11
REMARK    6  A    between atoms: _11  and  _12
REMARK    7  A    between atoms: _15  and  _17
REMARK    8  A    between atoms: _17  and  _18
REMARK    9  A    between atoms: _21  and  _23
REMARK   10  A    between atoms: _23  and  _24
REMARK   11  A    between atoms: _23  and  _26
REMARK   12  A    between atoms: _26  and  _27
REMARK   13  A    between atoms: _37  and  _39
REMARK   14  A    between atoms: _39  and  _40
REMARK   15  A    between atoms: _39  and  _42
REMARK   16  A    between atoms: _42  and  _43
REMARK   17  A    between atoms: _45  and  _47
REMARK   18  A    between atoms: _47  and  _48
REMARK   19  A    between atoms: _47  and  _50
REMARK   20  A    between atoms: _50  and  _51
REMARK   21  A    between atoms: _56  and  _57
REMARK   22  A    between atoms: _59  and  _61
REMARK   23  A    between atoms: _61  and  _62
REMARK   24  A    between atoms: _61  and  _64
REMARK   25  A    between atoms: _64  and  _65
REMARK   26  A    between atoms: _70  and  _71
REMARK   27  A    between atoms: _73  and  _75
REMARK   28  A    between atoms: _75  and  _76
REMARK   29  A    between atoms: _75  and  _78
REMARK   30  A    between atoms: _78  and  _79
REMARK   31  A    between atoms: _82  and  _84
REMARK   32  A    between atoms: _84  and  _85
REMARK   33  A    between atoms: _87  and  _89
REMARK   34  A    between atoms: _89  and  _90
REMARK   35  A    between atoms: _89  and  _92
REMARK   36  A    between atoms: _92  and  _93
REMARK   37  A    between atoms: _98  and  _99
REMARK   38  A    between atoms: _101  and  _103
REMARK   39  A    between atoms: _103  and  _104
REMARK   40  A    between atoms: _103  and  _106
REMARK   41  A    between atoms: _106  and  _107
REMARK   42  A    between atoms: _110  and  _112
REMARK   43  A    between atoms: _112  and  _113
REMARK   44  A    between atoms: _112  and  _115
REMARK   45  A    between atoms: _115  and  _116
REMARK   46  A    between atoms: _116  and  _117
REMARK   47  A    between atoms: _117  and  _118
REMARK   48  A    between atoms: _127  and  _129
REMARK   49  A    between atoms: _129  and  _130
REMARK   50  A    between atoms: _129  and  _132
REMARK   51  A    between atoms: _132  and  _133
REMARK   52  A    between atoms: _136  and  _138
REMARK   53  A    between atoms: _138  and  _139
REMARK   54  A    between atoms: _138  and  _141
REMARK   55  A    between atoms: _141  and  _142
REMARK   56  A    between atoms: _145  and  _147
REMARK   57  A    between atoms: _147  and  _148
REMARK   58  A    between atoms: _147  and  _150
REMARK   59  A    between atoms: _150  and  _151
REMARK   60  A    between atoms: _151  and  _152
REMARK   61  A    between atoms: _157  and  _159
REMARK   62  A    between atoms: _159  and  _160
REMARK   63  A    between atoms: _159  and  _162
REMARK   64  A    between atoms: _162  and  _163
REMARK   65  A    between atoms: _168  and  _170
REMARK   66  A    between atoms: _170  and  _171
REMARK   67  A    between atoms: _174  and  _176
REMARK   68  A    between atoms: _176  and  _177
REMARK   69  A    between atoms: _179  and  _181
REMARK   70  A    between atoms: _181  and  _182
REMARK   71  A    between atoms: _181  and  _184
REMARK   72  A    between atoms: _184  and  _185
REMARK   73  A    between atoms: _188  and  _190
REMARK   74  A    between atoms: _190  and  _191
REMARK   75  A    between atoms: _190  and  _193
REMARK   76  A    between atoms: _193  and  _194
REMARK   77  A    between atoms: _194  and  _195
REMARK   78  A    between atoms: _195  and  _196
REMARK   79  A    between atoms: _205  and  _207
REMARK   80  A    between atoms: _207  and  _208
REMARK   81  A    between atoms: _207  and  _210
REMARK   82  A    between atoms: _213  and  _215
REMARK   83  A    between atoms: _215  and  _216
REMARK   84  A    between atoms: _215  and  _218
REMARK   85  A    between atoms: _218  and  _219
REMARK   86  A    between atoms: _224  and  _225
REMARK   87  A    between atoms: _227  and  _229
REMARK   88  A    between atoms: _229  and  _230
REMARK   89  A    between atoms: _229  and  _232
REMARK   90  A    between atoms: _232  and  _233
REMARK   91  A    between atoms: _235  and  _237
REMARK   92  A    between atoms: _237  and  _238
REMARK   93  A    between atoms: _237  and  _240
REMARK   94  A    between atoms: _240  and  _241
REMARK   95  A    between atoms: _246  and  _248
REMARK   96  A    between atoms: _248  and  _249
REMARK   97  A    between atoms: _248  and  _251
REMARK   98  A    between atoms: _251  and  _252
REMARK   99  A    between atoms: _252  and  _253
REMARK  100  A    between atoms: _256  and  _258
REMARK  101  A    between atoms: _258  and  _259
REMARK  102  A    between atoms: _258  and  _261
REMARK  103  A    between atoms: _261  and  _262
REMARK  104  A    between atoms: _267  and  _268
REMARK  105  A    between atoms: _270  and  _272
REMARK  106  A    between atoms: _272  and  _273
REMARK  107  A    between atoms: _276  and  _278
REMARK  108  A    between atoms: _278  and  _279
REMARK  109  A    between atoms: _278  and  _281
REMARK  110  A    between atoms: _281  and  _282
REMARK  111  A    between atoms: _286  and  _287
REMARK  112  A    between atoms: _292  and  _294
REMARK  113  A    between atoms: _294  and  _295
REMARK  114  A    between atoms: _294  and  _297
REMARK  115  A    between atoms: _297  and  _298
REMARK  116  A    between atoms: _301  and  _303
REMARK  117  A    between atoms: _303  and  _304
REMARK  118  A    between atoms: _303  and  _306
REMARK  119  A    between atoms: _306  and  _307
REMARK  120  A    between atoms: _307  and  _308
REMARK  121  A    between atoms: _313  and  _315
REMARK  122  A    between atoms: _315  and  _316
REMARK  123  A    between atoms: _315  and  _318
REMARK  124  A    between atoms: _318  and  _319
REMARK  125  A    between atoms: _322  and  _324
REMARK  126  A    between atoms: _324  and  _325
REMARK  127  A    between atoms: _324  and  _327
REMARK  128  A    between atoms: _327  and  _328
REMARK  129  A    between atoms: _331  and  _333
REMARK  130  A    between atoms: _333  and  _334
REMARK  131  A    between atoms: _333  and  _336
REMARK  132  A    between atoms: _336  and  _337
REMARK  133  A    between atoms: _343  and  _345
REMARK  134  A    between atoms: _345  and  _346
REMARK  135  A    between atoms: _348  and  _350
REMARK  136  A    between atoms: _350  and  _351
REMARK  137  A    between atoms: _350  and  _353
REMARK  138  A    between atoms: _353  and  _354
REMARK  139  A    between atoms: _357  and  _359
REMARK  140  A    between atoms: _359  and  _360
REMARK  141  A    between atoms: _363  and  _365
REMARK  142  A    between atoms: _365  and  _366
REMARK  143  A    between atoms: _365  and  _368
REMARK  144  A    between atoms: _368  and  _369
REMARK  145  A    between atoms: _379  and  _381
REMARK  146  A    between atoms: _381  and  _382
REMARK  147  A    between atoms: _381  and  _384
REMARK  148  A    between atoms: _384  and  _385
REMARK  149  A    between atoms: _387  and  _389
REMARK  150  A    between atoms: _389  and  _390
REMARK  151  A    between atoms: _389  and  _392
REMARK  152  A    between atoms: _392  and  _393
REMARK  153  A    between atoms: _398  and  _399
REMARK  154  A    between atoms: _401  and  _403
REMARK  155  A    between atoms: _403  and  _404
REMARK  156  A    between atoms: _403  and  _406
REMARK  157  A    between atoms: _406  and  _407
REMARK  158  A    between atoms: _412  and  _413
REMARK  159  A    between atoms: _415  and  _417
REMARK  160  A    between atoms: _417  and  _418
REMARK  161  A    between atoms: _417  and  _420
REMARK  162  A    between atoms: _420  and  _421
REMARK  163  A    between atoms: _424  and  _426
REMARK  164  A    between atoms: _426  and  _427
REMARK  165  A    between atoms: _429  and  _431
REMARK  166  A    between atoms: _431  and  _432
REMARK  167  A    between atoms: _431  and  _434
REMARK  168  A    between atoms: _434  and  _435
REMARK  169  A    between atoms: _440  and  _441
REMARK  170  A    between atoms: _443  and  _445
REMARK  171  A    between atoms: _445  and  _446
REMARK  172  A    between atoms: _445  and  _448
REMARK  173  A    between atoms: _448  and  _449
REMARK  174  A    between atoms: _452  and  _454
REMARK  175  A    between atoms: _454  and  _455
REMARK  176  A    between atoms: _454  and  _457
REMARK  177  A    between atoms: _457  and  _458
REMARK  178  A    between atoms: _458  and  _459
REMARK  179  A    between atoms: _459  and  _460
REMARK  180  A    between atoms: _469  and  _471
REMARK  181  A    between atoms: _471  and  _472
REMARK  182  A    between atoms: _471  and  _474
REMARK  183  A    between atoms: _474  and  _475
REMARK  184  A    between atoms: _478  and  _480
REMARK  185  A    between atoms: _480  and  _481
REMARK  186  A    between atoms: _480  and  _483
REMARK  187  A    between atoms: _483  and  _484
REMARK  188  A    between atoms: _487  and  _489
REMARK  189  A    between atoms: _489  and  _490
REMARK  190  A    between atoms: _489  and  _492
REMARK  191  A    between atoms: _492  and  _493
REMARK  192  A    between atoms: _496  and  _498
REMARK  193  A    between atoms: _498  and  _499
REMARK  194  A    between atoms: _498  and  _501
REMARK  195  A    between atoms: _501  and  _502
REMARK  196  A    between atoms: _505  and  _507
REMARK  197  A    between atoms: _507  and  _508
REMARK  198  A    between atoms: _507  and  _510
REMARK  199  A    between atoms: _510  and  _511
REMARK  200  A    between atoms: _511  and  _512
REMARK  201  A    between atoms: _517  and  _519
REMARK  202  A    between atoms: _519  and  _520
REMARK  203  A    between atoms: _519  and  _522
REMARK  204  A    between atoms: _522  and  _523
REMARK  205  A    between atoms: _528  and  _530
REMARK  206  A    between atoms: _530  and  _531
REMARK  207  A    between atoms: _534  and  _536
REMARK  208  A    between atoms: _536  and  _537
REMARK  209  A    between atoms: _536  and  _539
REMARK  210  A    between atoms: _539  and  _540
REMARK  211  A    between atoms: _543  and  _545
REMARK  212  A    between atoms: _545  and  _546
REMARK  213  A    between atoms: _545  and  _548
REMARK  214  A    between atoms: _548  and  _549
REMARK  215  A    between atoms: _549  and  _550
REMARK  216  A    between atoms: _550  and  _551
REMARK  217  A    between atoms: _560  and  _562
REMARK  218  A    between atoms: _562  and  _563
REMARK  219  A    between atoms: _562  and  _565
REMARK  220  A    between atoms: _568  and  _570
REMARK  221  A    between atoms: _570  and  _571
REMARK  222  A    between atoms: _570  and  _573
REMARK  223  A    between atoms: _573  and  _574
REMARK  224  A    between atoms: _579  and  _580
REMARK  225  A    between atoms: _582  and  _584
REMARK  226  A    between atoms: _584  and  _585
REMARK  227  A    between atoms: _584  and  _587
REMARK  228  A    between atoms: _587  and  _588
REMARK  229  A    between atoms: _590  and  _592
REMARK  230  A    between atoms: _592  and  _593
REMARK  231  A    between atoms: _592  and  _595
REMARK  232  A    between atoms: _595  and  _596
REMARK  233  A    between atoms: _601  and  _603
REMARK  234  A    between atoms: _603  and  _604
REMARK  235  A    between atoms: _603  and  _606
REMARK  236  A    between atoms: _606  and  _607
REMARK  237  A    between atoms: _609  and  _611
REMARK  238  A    between atoms: _611  and  _612
REMARK  239  A    between atoms: _611  and  _614
REMARK  240  A    between atoms: _614  and  _615
REMARK  241  A    between atoms: _615  and  _616
REMARK  242  A    between atoms: _619  and  _621
REMARK  243  A    between atoms: _621  and  _622
REMARK  244  A    between atoms: _621  and  _624
REMARK  245  A    between atoms: _624  and  _625
REMARK  246  A    between atoms: _630  and  _631
REMARK  247  A    between atoms: _633  and  _635
REMARK  248  A    between atoms: _635  and  _636
REMARK  249  A    between atoms: _639  and  _641
REMARK  250  A    between atoms: _641  and  _642
REMARK  251  A    between atoms: _641  and  _644
REMARK  252  A    between atoms: _644  and  _645
REMARK  253  A    between atoms: _649  and  _650
REMARK  254  A    between atoms: _655  and  _657
REMARK  255  A    between atoms: _657  and  _658
REMARK  256  A    between atoms: _657  and  _660
REMARK  257  A    between atoms: _660  and  _661
REMARK  258  A    between atoms: _664  and  _666
REMARK  259  A    between atoms: _666  and  _667
REMARK  260  A    between atoms: _666  and  _669
REMARK  261  A    between atoms: _669  and  _670
REMARK  262  A    between atoms: _670  and  _671
REMARK  263  A    between atoms: _676  and  _678
REMARK  264  A    between atoms: _678  and  _679
REMARK  265  A    between atoms: _678  and  _681
REMARK  266  A    between atoms: _681  and  _682
REMARK  267  A    between atoms: _685  and  _687
REMARK  268  A    between atoms: _687  and  _688
REMARK  269  A    between atoms: _687  and  _690
REMARK  270  A    between atoms: _690  and  _691
REMARK                            x       y       z     vdW  Elec       q    Type
REMARK                         _______ _______ _______ _____ _____    ______ ____
ROOT
ATOM      1  O   HOH     1      50.993  25.725  15.468  0.00  0.00    +0.000 OA
ENDROOT
TORSDOF 0
REMARK  Name = ../refined-set-2016/4loi/4loi_pocket.pdb
REMARK  270 active torsions:
REMARK  status: ('A' for Active; 'I' for Inactive)
REMARK    1  A    between atoms: _1  and  _3
REMARK    2  A    between atoms: _3  and  _4
REMARK    3  A    between atoms: _6  and  _8
REMARK    4  A    between atoms: _8  and  _9
REMARK    5  A    between atoms: _8  and  _11
REMARK    6  A    between atoms: _11  and  _12
REMARK    7  A    between atoms: _15  and  _17
REMARK    8  A    between atoms: _17  and  _18
REMARK    9  A    between atoms: _21  and  _23
REMARK   10  A    between atoms: _23  and  _24
REMARK   11  A    between atoms: _23  and  _26
REMARK   12  A    between atoms: _26  and  _27
REMARK   13  A    between atoms: _37  and  _39
REMARK   14  A    between atoms: _39  and  _40
REMARK   15  A    between atoms: _39  and  _42
REMARK   16  A    between atoms: _42  and  _43
REMARK   17  A    between atoms: _45  and  _47
REMARK   18  A    between atoms: _47  and  _48
REMARK   19  A    between atoms: _47  and  _50
REMARK   20  A    between atoms: _50  and  _51
REMARK   21  A    between atoms: _56  and  _57
REMARK   22  A    between atoms: _59  and  _61
REMARK   23  A    between atoms: _61  and  _62
REMARK   24  A    between atoms: _61  and  _64
REMARK   25  A    between atoms: _64  and  _65
REMARK   26  A    between atoms: _70  and  _71
REMARK   27  A    between atoms: _73  and  _75
REMARK   28  A    between atoms: _75  and  _76
REMARK   29  A    between atoms: _75  and  _78
REMARK   30  A    between atoms: _78  and  _79
REMARK   31  A    between atoms: _82  and  _84
REMARK   32  A    between atoms: _84  and  _85
REMARK   33  A    between atoms: _87  and  _89
REMARK   34  A    between atoms: _89  and  _90
REMARK   35  A    between atoms: _89  and  _92
REMARK   36  A    between atoms: _92  and  _93
REMARK   37  A    between atoms: _98  and  _99
REMARK   38  A    between atoms: _101  and  _103
REMARK   39  A    between atoms: _103  and  _104
REMARK   40  A    between atoms: _103  and  _106
REMARK   41  A    between atoms: _106  and  _107
REMARK   42  A    between atoms: _110  and  _112
REMARK   43  A    between atoms: _112  and  _113
REMARK   44  A    between atoms: _112  and  _115
REMARK   45  A    between atoms: _115  and  _116
REMARK   46  A    between atoms: _116  and  _117
REMARK   47  A    between atoms: _117  and  _118
REMARK   48  A    between atoms: _127  and  _129
REMARK   49  A    between atoms: _129  and  _130
REMARK   50  A    between atoms: _129  and  _132
REMARK   51  A    between atoms: _132  and  _133
REMARK   52  A    between atoms: _136  and  _138
REMARK   53  A    between atoms: _138  and  _139
REMARK   54  A    between atoms: _138  and  _141
REMARK   55  A    between atoms: _141  and  _142
REMARK   56  A    between atoms: _145  and  _147
REMARK   57  A    between atoms: _147  and  _148
REMARK   58  A    between atoms: _147  and  _150
REMARK   59  A    between atoms: _150  and  _151
REMARK   60  A    between atoms: _151  and  _152
REMARK   61  A    between atoms: _157  and  _159
REMARK   62  A    between atoms: _159  and  _160
REMARK   63  A    between atoms: _159  and  _162
REMARK   64  A    between atoms: _162  and  _163
REMARK   65  A    between atoms: _168  and  _170
REMARK   66  A    between atoms: _170  and  _171
REMARK   67  A    between atoms: _174  and  _176
REMARK   68  A    between atoms: _176  and  _177
REMARK   69  A    between atoms: _179  and  _181
REMARK   70  A    between atoms: _181  and  _182
REMARK   71  A    between atoms: _181  and  _184
REMARK   72  A    between atoms: _184  and  _185
REMARK   73  A    between atoms: _188  and  _190
REMARK   74  A    between atoms: _190  and  _191
REMARK   75  A    between atoms: _190  and  _193
REMARK   76  A    between atoms: _193  and  _194
REMARK   77  A    between atoms: _194  and  _195
REMARK   78  A    between atoms: _195  and  _196
REMARK   79  A    between atoms: _205  and  _207
REMARK   80  A    between atoms: _207  and  _208
REMARK   81  A    between atoms: _207  and  _210
REMARK   82  A    between atoms: _213  and  _215
REMARK   83  A    between atoms: _215  and  _216
REMARK   84  A    between atoms: _215  and  _218
REMARK   85  A    between atoms: _218  and  _219
REMARK   86  A    between atoms: _224  and  _225
REMARK   87  A    between atoms: _227  and  _229
REMARK   88  A    between atoms: _229  and  _230
REMARK   89  A    between atoms: _229  and  _232
REMARK   90  A    between atoms: _232  and  _233
REMARK   91  A    between atoms: _235  and  _237
REMARK   92  A    between atoms: _237  and  _238
REMARK   93  A    between atoms: _237  and  _240
REMARK   94  A    between atoms: _240  and  _241
REMARK   95  A    between atoms: _246  and  _248
REMARK   96  A    between atoms: _248  and  _249
REMARK   97  A    between atoms: _248  and  _251
REMARK   98  A    between atoms: _251  and  _252
REMARK   99  A    between atoms: _252  and  _253
REMARK  100  A    between atoms: _256  and  _258
REMARK  101  A    between atoms: _258  and  _259
REMARK  102  A    between atoms: _258  and  _261
REMARK  103  A    between atoms: _261  and  _262
REMARK  104  A    between atoms: _267  and  _268
REMARK  105  A    between atoms: _270  and  _272
REMARK  106  A    between atoms: _272  and  _273
REMARK  107  A    between atoms: _276  and  _278
REMARK  108  A    between atoms: _278  and  _279
REMARK  109  A    between atoms: _278  and  _281
REMARK  110  A    between atoms: _281  and  _282
REMARK  111  A    between atoms: _286  and  _287
REMARK  112  A    between atoms: _292  and  _294
REMARK  113  A    between atoms: _294  and  _295
REMARK  114  A    between atoms: _294  and  _297
REMARK  115  A    between atoms: _297  and  _298
REMARK  116  A    between atoms: _301  and  _303
REMARK  117  A    between atoms: _303  and  _304
REMARK  118  A    between atoms: _303  and  _306
REMARK  119  A    between atoms: _306  and  _307
REMARK  120  A    between atoms: _307  and  _308
REMARK  121  A    between atoms: _313  and  _315
REMARK  122  A    between atoms: _315  and  _316
REMARK  123  A    between atoms: _315  and  _318
REMARK  124  A    between atoms: _318  and  _319
REMARK  125  A    between atoms: _322  and  _324
REMARK  126  A    between atoms: _324  and  _325
REMARK  127  A    between atoms: _324  and  _327
REMARK  128  A    between atoms: _327  and  _328
REMARK  129  A    between atoms: _331  and  _333
REMARK  130  A    between atoms: _333  and  _334
REMARK  131  A    between atoms: _333  and  _336
REMARK  132  A    between atoms: _336  and  _337
REMARK  133  A    between atoms: _343  and  _345
REMARK  134  A    between atoms: _345  and  _346
REMARK  135  A    between atoms: _348  and  _350
REMARK  136  A    between atoms: _350  and  _351
REMARK  137  A    between atoms: _350  and  _353
REMARK  138  A    between atoms: _353  and  _354
REMARK  139  A    between atoms: _357  and  _359
REMARK  140  A    between atoms: _359  and  _360
REMARK  141  A    between atoms: _363  and  _365
REMARK  142  A    between atoms: _365  and  _366
REMARK  143  A    between atoms: _365  and  _368
REMARK  144  A    between atoms: _368  and  _369
REMARK  145  A    between atoms: _379  and  _381
REMARK  146  A    between atoms: _381  and  _382
REMARK  147  A    between atoms: _381  and  _384
REMARK  148  A    between atoms: _384  and  _385
REMARK  149  A    between atoms: _387  and  _389
REMARK  150  A    between atoms: _389  and  _390
REMARK  151  A    between atoms: _389  and  _392
REMARK  152  A    between atoms: _392  and  _393
REMARK  153  A    between atoms: _398  and  _399
REMARK  154  A    between atoms: _401  and  _403
REMARK  155  A    between atoms: _403  and  _404
REMARK  156  A    between atoms: _403  and  _406
REMARK  157  A    between atoms: _406  and  _407
REMARK  158  A    between atoms: _412  and  _413
REMARK  159  A    between atoms: _415  and  _417
REMARK  160  A    between atoms: _417  and  _418
REMARK  161  A    between atoms: _417  and  _420
REMARK  162  A    between atoms: _420  and  _421
REMARK  163  A    between atoms: _424  and  _426
REMARK  164  A    between atoms: _426  and  _427
REMARK  165  A    between atoms: _429  and  _431
REMARK  166  A    between atoms: _431  and  _432
REMARK  167  A    between atoms: _431  and  _434
REMARK  168  A    between atoms: _434  and  _435
REMARK  169  A    between atoms: _440  and  _441
REMARK  170  A    between atoms: _443  and  _445
REMARK  171  A    between atoms: _445  and  _446
REMARK  172  A    between atoms: _445  and  _448
REMARK  173  A    between atoms: _448  and  _449
REMARK  174  A    between atoms: _452  and  _454
REMARK  175  A    between atoms: _454  and  _455
REMARK  176  A    between atoms: _454  and  _457
REMARK  177  A    between atoms: _457  and  _458
REMARK  178  A    between atoms: _458  and  _459
REMARK  179  A    between atoms: _459  and  _460
REMARK  180  A    between atoms: _469  and  _471
REMARK  181  A    between atoms: _471  and  _472
REMARK  182  A    between atoms: _471  and  _474
REMARK  183  A    between atoms: _474  and  _475
REMARK  184  A    between atoms: _478  and  _480
REMARK  185  A    between atoms: _480  and  _481
REMARK  186  A    between atoms: _480  and  _483
REMARK  187  A    between atoms: _483  and  _484
REMARK  188  A    between atoms: _487  and  _489
REMARK  189  A    between atoms: _489  and  _490
REMARK  190  A    between atoms: _489  and  _492
REMARK  191  A    between atoms: _492  and  _493
REMARK  192  A    between atoms: _496  and  _498
REMARK  193  A    between atoms: _498  and  _499
REMARK  194  A    between atoms: _498  and  _501
REMARK  195  A    between atoms: _501  and  _502
REMARK  196  A    between atoms: _505  and  _507
REMARK  197  A    between atoms: _507  and  _508
REMARK  198  A    between atoms: _507  and  _510
REMARK  199  A    between atoms: _510  and  _511
REMARK  200  A    between atoms: _511  and  _512
REMARK  201  A    between atoms: _517  and  _519
REMARK  202  A    between atoms: _519  and  _520
REMARK  203  A    between atoms: _519  and  _522
REMARK  204  A    between atoms: _522  and  _523
REMARK  205  A    between atoms: _528  and  _530
REMARK  206  A    between atoms: _530  and  _531
REMARK  207  A    between atoms: _534  and  _536
REMARK  208  A    between atoms: _536  and  _537
REMARK  209  A    between atoms: _536  and  _539
REMARK  210  A    between atoms: _539  and  _540
REMARK  211  A    between atoms: _543  and  _545
REMARK  212  A    between atoms: _545  and  _546
REMARK  213  A    between atoms: _545  and  _548
REMARK  214  A    between atoms: _548  and  _549
REMARK  215  A    between atoms: _549  and  _550
REMARK  216  A    between atoms: _550  and  _551
REMARK  217  A    between atoms: _560  and  _562
REMARK  218  A    between atoms: _562  and  _563
REMARK  219  A    between atoms: _562  and  _565
REMARK  220  A    between atoms: _568  and  _570
REMARK  221  A    between atoms: _570  and  _571
REMARK  222  A    between atoms: _570  and  _573
REMARK  223  A    between atoms: _573  and  _574
REMARK  224  A    between atoms: _579  and  _580
REMARK  225  A    between atoms: _582  and  _584
REMARK  226  A    between atoms: _584  and  _585
REMARK  227  A    between atoms: _584  and  _587
REMARK  228  A    between atoms: _587  and  _588
REMARK  229  A    between atoms: _590  and  _592
REMARK  230  A    between atoms: _592  and  _593
REMARK  231  A    between atoms: _592  and  _595
REMARK  232  A    between atoms: _595  and  _596
REMARK  233  A    between atoms: _601  and  _603
REMARK  234  A    between atoms: _603  and  _604
REMARK  235  A    between atoms: _603  and  _606
REMARK  236  A    between atoms: _606  and  _607
REMARK  237  A    between atoms: _609  and  _611
REMARK  238  A    between atoms: _611  and  _612
REMARK  239  A    between atoms: _611  and  _614
REMARK  240  A    between atoms: _614  and  _615
REMARK  241  A    between atoms: _615  and  _616
REMARK  242  A    between atoms: _619  and  _621
REMARK  243  A    between atoms: _621  and  _622
REMARK  244  A    between atoms: _621  and  _624
REMARK  245  A    between atoms: _624  and  _625
REMARK  246  A    between atoms: _630  and  _631
REMARK  247  A    between atoms: _633  and  _635
REMARK  248  A    between atoms: _635  and  _636
REMARK  249  A    between atoms: _639  and  _641
REMARK  250  A    between atoms: _641  and  _642
REMARK  251  A    between atoms: _641  and  _644
REMARK  252  A    between atoms: _644  and  _645
REMARK  253  A    between atoms: _649  and  _650
REMARK  254  A    between atoms: _655  and  _657
REMARK  255  A    between atoms: _657  and  _658
REMARK  256  A    between atoms: _657  and  _660
REMARK  257  A    between atoms: _660  and  _661
REMARK  258  A    between atoms: _664  and  _666
REMARK  259  A    between atoms: _666  and  _667
REMARK  260  A    between atoms: _666  and  _669
REMARK  261  A    between atoms: _669  and  _670
REMARK  262  A    between atoms: _670  and  _671
REMARK  263  A    between atoms: _676  and  _678
REMARK  264  A    between atoms: _678  and  _679
REMARK  265  A    between atoms: _678  and  _681
REMARK  266  A    between atoms: _681  and  _682
REMARK  267  A    between atoms: _685  and  _687
REMARK  268  A    between atoms: _687  and  _688
REMARK  269  A    between atoms: _687  and  _690
REMARK  270  A    between atoms: _690  and  _691
REMARK                            x       y       z     vdW  Elec       q    Type
REMARK                         _______ _______ _______ _____ _____    ______ ____
ROOT
ATOM      1  O   HOH     1      49.453  35.598  11.324  0.00  0.00    +0.000 OA
ENDROOT
TORSDOF 0
REMARK  Name = ../refined-set-2016/4loi/4loi_pocket.pdb
REMARK  270 active torsions:
REMARK  status: ('A' for Active; 'I' for Inactive)
REMARK    1  A    between atoms: _1  and  _3
REMARK    2  A    between atoms: _3  and  _4
REMARK    3  A    between atoms: _6  and  _8
REMARK    4  A    between atoms: _8  and  _9
REMARK    5  A    between atoms: _8  and  _11
REMARK    6  A    between atoms: _11  and  _12
REMARK    7  A    between atoms: _15  and  _17
REMARK    8  A    between atoms: _17  and  _18
REMARK    9  A    between atoms: _21  and  _23
REMARK   10  A    between atoms: _23  and  _24
REMARK   11  A    between atoms: _23  and  _26
REMARK   12  A    between atoms: _26  and  _27
REMARK   13  A    between atoms: _37  and  _39
REMARK   14  A    between atoms: _39  and  _40
REMARK   15  A    between atoms: _39  and  _42
REMARK   16  A    between atoms: _42  and  _43
REMARK   17  A    between atoms: _45  and  _47
REMARK   18  A    between atoms: _47  and  _48
REMARK   19  A    between atoms: _47  and  _50
REMARK   20  A    between atoms: _50  and  _51
REMARK   21  A    between atoms: _56  and  _57
REMARK   22  A    between atoms: _59  and  _61
REMARK   23  A    between atoms: _61  and  _62
REMARK   24  A    between atoms: _61  and  _64
REMARK   25  A    between atoms: _64  and  _65
REMARK   26  A    between atoms: _70  and  _71
REMARK   27  A    between atoms: _73  and  _75
REMARK   28  A    between atoms: _75  and  _76
REMARK   29  A    between atoms: _75  and  _78
REMARK   30  A    between atoms: _78  and  _79
REMARK   31  A    between atoms: _82  and  _84
REMARK   32  A    between atoms: _84  and  _85
REMARK   33  A    between atoms: _87  and  _89
REMARK   34  A    between atoms: _89  and  _90
REMARK   35  A    between atoms: _89  and  _92
REMARK   36  A    between atoms: _92  and  _93
REMARK   37  A    between atoms: _98  and  _99
REMARK   38  A    between atoms: _101  and  _103
REMARK   39  A    between atoms: _103  and  _104
REMARK   40  A    between atoms: _103  and  _106
REMARK   41  A    between atoms: _106  and  _107
REMARK   42  A    between atoms: _110  and  _112
REMARK   43  A    between atoms: _112  and  _113
REMARK   44  A    between atoms: _112  and  _115
REMARK   45  A    between atoms: _115  and  _116
REMARK   46  A    between atoms: _116  and  _117
REMARK   47  A    between atoms: _117  and  _118
REMARK   48  A    between atoms: _127  and  _129
REMARK   49  A    between atoms: _129  and  _130
REMARK   50  A    between atoms: _129  and  _132
REMARK   51  A    between atoms: _132  and  _133
REMARK   52  A    between atoms: _136  and  _138
REMARK   53  A    between atoms: _138  and  _139
REMARK   54  A    between atoms: _138  and  _141
REMARK   55  A    between atoms: _141  and  _142
REMARK   56  A    between atoms: _145  and  _147
REMARK   57  A    between atoms: _147  and  _148
REMARK   58  A    between atoms: _147  and  _150
REMARK   59  A    between atoms: _150  and  _151
REMARK   60  A    between atoms: _151  and  _152
REMARK   61  A    between atoms: _157  and  _159
REMARK   62  A    between atoms: _159  and  _160
REMARK   63  A    between atoms: _159  and  _162
REMARK   64  A    between atoms: _162  and  _163
REMARK   65  A    between atoms: _168  and  _170
REMARK   66  A    between atoms: _170  and  _171
REMARK   67  A    between atoms: _174  and  _176
REMARK   68  A    between atoms: _176  and  _177
REMARK   69  A    between atoms: _179  and  _181
REMARK   70  A    between atoms: _181  and  _182
REMARK   71  A    between atoms: _181  and  _184
REMARK   72  A    between atoms: _184  and  _185
REMARK   73  A    between atoms: _188  and  _190
REMARK   74  A    between atoms: _190  and  _191
REMARK   75  A    between atoms: _190  and  _193
REMARK   76  A    between atoms: _193  and  _194
REMARK   77  A    between atoms: _194  and  _195
REMARK   78  A    between atoms: _195  and  _196
REMARK   79  A    between atoms: _205  and  _207
REMARK   80  A    between atoms: _207  and  _208
REMARK   81  A    between atoms: _207  and  _210
REMARK   82  A    between atoms: _213  and  _215
REMARK   83  A    between atoms: _215  and  _216
REMARK   84  A    between atoms: _215  and  _218
REMARK   85  A    between atoms: _218  and  _219
REMARK   86  A    between atoms: _224  and  _225
REMARK   87  A    between atoms: _227  and  _229
REMARK   88  A    between atoms: _229  and  _230
REMARK   89  A    between atoms: _229  and  _232
REMARK   90  A    between atoms: _232  and  _233
REMARK   91  A    between atoms: _235  and  _237
REMARK   92  A    between atoms: _237  and  _238
REMARK   93  A    between atoms: _237  and  _240
REMARK   94  A    between atoms: _240  and  _241
REMARK   95  A    between atoms: _246  and  _248
REMARK   96  A    between atoms: _248  and  _249
REMARK   97  A    between atoms: _248  and  _251
REMARK   98  A    between atoms: _251  and  _252
REMARK   99  A    between atoms: _252  and  _253
REMARK  100  A    between atoms: _256  and  _258
REMARK  101  A    between atoms: _258  and  _259
REMARK  102  A    between atoms: _258  and  _261
REMARK  103  A    between atoms: _261  and  _262
REMARK  104  A    between atoms: _267  and  _268
REMARK  105  A    between atoms: _270  and  _272
REMARK  106  A    between atoms: _272  and  _273
REMARK  107  A    between atoms: _276  and  _278
REMARK  108  A    between atoms: _278  and  _279
REMARK  109  A    between atoms: _278  and  _281
REMARK  110  A    between atoms: _281  and  _282
REMARK  111  A    between atoms: _286  and  _287
REMARK  112  A    between atoms: _292  and  _294
REMARK  113  A    between atoms: _294  and  _295
REMARK  114  A    between atoms: _294  and  _297
REMARK  115  A    between atoms: _297  and  _298
REMARK  116  A    between atoms: _301  and  _303
REMARK  117  A    between atoms: _303  and  _304
REMARK  118  A    between atoms: _303  and  _306
REMARK  119  A    between atoms: _306  and  _307
REMARK  120  A    between atoms: _307  and  _308
REMARK  121  A    between atoms: _313  and  _315
REMARK  122  A    between atoms: _315  and  _316
REMARK  123  A    between atoms: _315  and  _318
REMARK  124  A    between atoms: _318  and  _319
REMARK  125  A    between atoms: _322  and  _324
REMARK  126  A    between atoms: _324  and  _325
REMARK  127  A    between atoms: _324  and  _327
REMARK  128  A    between atoms: _327  and  _328
REMARK  129  A    between atoms: _331  and  _333
REMARK  130  A    between atoms: _333  and  _334
REMARK  131  A    between atoms: _333  and  _336
REMARK  132  A    between atoms: _336  and  _337
REMARK  133  A    between atoms: _343  and  _345
REMARK  134  A    between atoms: _345  and  _346
REMARK  135  A    between atoms: _348  and  _350
REMARK  136  A    between atoms: _350  and  _351
REMARK  137  A    between atoms: _350  and  _353
REMARK  138  A    between atoms: _353  and  _354
REMARK  139  A    between atoms: _357  and  _359
REMARK  140  A    between atoms: _359  and  _360
REMARK  141  A    between atoms: _363  and  _365
REMARK  142  A    between atoms: _365  and  _366
REMARK  143  A    between atoms: _365  and  _368
REMARK  144  A    between atoms: _368  and  _369
REMARK  145  A    between atoms: _379  and  _381
REMARK  146  A    between atoms: _381  and  _382
REMARK  147  A    between atoms: _381  and  _384
REMARK  148  A    between atoms: _384  and  _385
REMARK  149  A    between atoms: _387  and  _389
REMARK  150  A    between atoms: _389  and  _390
REMARK  151  A    between atoms: _389  and  _392
REMARK  152  A    between atoms: _392  and  _393
REMARK  153  A    between atoms: _398  and  _399
REMARK  154  A    between atoms: _401  and  _403
REMARK  155  A    between atoms: _403  and  _404
REMARK  156  A    between atoms: _403  and  _406
REMARK  157  A    between atoms: _406  and  _407
REMARK  158  A    between atoms: _412  and  _413
REMARK  159  A    between atoms: _415  and  _417
REMARK  160  A    between atoms: _417  and  _418
REMARK  161  A    between atoms: _417  and  _420
REMARK  162  A    between atoms: _420  and  _421
REMARK  163  A    between atoms: _424  and  _426
REMARK  164  A    between atoms: _426  and  _427
REMARK  165  A    between atoms: _429  and  _431
REMARK  166  A    between atoms: _431  and  _432
REMARK  167  A    between atoms: _431  and  _434
REMARK  168  A    between atoms: _434  and  _435
REMARK  169  A    between atoms: _440  and  _441
REMARK  170  A    between atoms: _443  and  _445
REMARK  171  A    between atoms: _445  and  _446
REMARK  172  A    between atoms: _445  and  _448
REMARK  173  A    between atoms: _448  and  _449
REMARK  174  A    between atoms: _452  and  _454
REMARK  175  A    between atoms: _454  and  _455
REMARK  176  A    between atoms: _454  and  _457
REMARK  177  A    between atoms: _457  and  _458
REMARK  178  A    between atoms: _458  and  _459
REMARK  179  A    between atoms: _459  and  _460
REMARK  180  A    between atoms: _469  and  _471
REMARK  181  A    between atoms: _471  and  _472
REMARK  182  A    between atoms: _471  and  _474
REMARK  183  A    between atoms: _474  and  _475
REMARK  184  A    between atoms: _478  and  _480
REMARK  185  A    between atoms: _480  and  _481
REMARK  186  A    between atoms: _480  and  _483
REMARK  187  A    between atoms: _483  and  _484
REMARK  188  A    between atoms: _487  and  _489
REMARK  189  A    between atoms: _489  and  _490
REMARK  190  A    between atoms: _489  and  _492
REMARK  191  A    between atoms: _492  and  _493
REMARK  192  A    between atoms: _496  and  _498
REMARK  193  A    between atoms: _498  and  _499
REMARK  194  A    between atoms: _498  and  _501
REMARK  195  A    between atoms: _501  and  _502
REMARK  196  A    between atoms: _505  and  _507
REMARK  197  A    between atoms: _507  and  _508
REMARK  198  A    between atoms: _507  and  _510
REMARK  199  A    between atoms: _510  and  _511
REMARK  200  A    between atoms: _511  and  _512
REMARK  201  A    between atoms: _517  and  _519
REMARK  202  A    between atoms: _519  and  _520
REMARK  203  A    between atoms: _519  and  _522
REMARK  204  A    between atoms: _522  and  _523
REMARK  205  A    between atoms: _528  and  _530
REMARK  206  A    between atoms: _530  and  _531
REMARK  207  A    between atoms: _534  and  _536
REMARK  208  A    between atoms: _536  and  _537
REMARK  209  A    between atoms: _536  and  _539
REMARK  210  A    between atoms: _539  and  _540
REMARK  211  A    between atoms: _543  and  _545
REMARK  212  A    between atoms: _545  and  _546
REMARK  213  A    between atoms: _545  and  _548
REMARK  214  A    between atoms: _548  and  _549
REMARK  215  A    between atoms: _549  and  _550
REMARK  216  A    between atoms: _550  and  _551
REMARK  217  A    between atoms: _560  and  _562
REMARK  218  A    between atoms: _562  and  _563
REMARK  219  A    between atoms: _562  and  _565
REMARK  220  A    between atoms: _568  and  _570
REMARK  221  A    between atoms: _570  and  _571
REMARK  222  A    between atoms: _570  and  _573
REMARK  223  A    between atoms: _573  and  _574
REMARK  224  A    between atoms: _579  and  _580
REMARK  225  A    between atoms: _582  and  _584
REMARK  226  A    between atoms: _584  and  _585
REMARK  227  A    between atoms: _584  and  _587
REMARK  228  A    between atoms: _587  and  _588
REMARK  229  A    between atoms: _590  and  _592
REMARK  230  A    between atoms: _592  and  _593
REMARK  231  A    between atoms: _592  and  _595
REMARK  232  A    between atoms: _595  and  _596
REMARK  233  A    between atoms: _601  and  _603
REMARK  234  A    between atoms: _603  and  _604
REMARK  235  A    between atoms: _603  and  _606
REMARK  236  A    between atoms: _606  and  _607
REMARK  237  A    between atoms: _609  and  _611
REMARK  238  A    between atoms: _611  and  _612
REMARK  239  A    between atoms: _611  and  _614
REMARK  240  A    between atoms: _614  and  _615
REMARK  241  A    between atoms: _615  and  _616
REMARK  242  A    between atoms: _619  and  _621
REMARK  243  A    between atoms: _621  and  _622
REMARK  244  A    between atoms: _621  and  _624
REMARK  245  A    between atoms: _624  and  _625
REMARK  246  A    between atoms: _630  and  _631
REMARK  247  A    between atoms: _633  and  _635
REMARK  248  A    between atoms: _635  and  _636
REMARK  249  A    between atoms: _639  and  _641
REMARK  250  A    between atoms: _641  and  _642
REMARK  251  A    between atoms: _641  and  _644
REMARK  252  A    between atoms: _644  and  _645
REMARK  253  A    between atoms: _649  and  _650
REMARK  254  A    between atoms: _655  and  _657
REMARK  255  A    between atoms: _657  and  _658
REMARK  256  A    between atoms: _657  and  _660
REMARK  257  A    between atoms: _660  and  _661
REMARK  258  A    between atoms: _664  and  _666
REMARK  259  A    between atoms: _666  and  _667
REMARK  260  A    between atoms: _666  and  _669
REMARK  261  A    between atoms: _669  and  _670
REMARK  262  A    between atoms: _670  and  _671
REMARK  263  A    between atoms: _676  and  _678
REMARK  264  A    between atoms: _678  and  _679
REMARK  265  A    between atoms: _678  and  _681
REMARK  266  A    between atoms: _681  and  _682
REMARK  267  A    between atoms: _685  and  _687
REMARK  268  A    between atoms: _687  and  _688
REMARK  269  A    between atoms: _687  and  _690
REMARK  270  A    between atoms: _690  and  _691
REMARK                            x       y       z     vdW  Elec       q    Type
REMARK                         _______ _______ _______ _____ _____    ______ ____
ROOT
ATOM      1  O   HOH     1      46.261  34.367   8.229  0.00  0.00    +0.000 OA
ENDROOT
TORSDOF 0
REMARK  Name = ../refined-set-2016/4loi/4loi_pocket.pdb
REMARK  270 active torsions:
REMARK  status: ('A' for Active; 'I' for Inactive)
REMARK    1  A    between atoms: _1  and  _3
REMARK    2  A    between atoms: _3  and  _4
REMARK    3  A    between atoms: _6  and  _8
REMARK    4  A    between atoms: _8  and  _9
REMARK    5  A    between atoms: _8  and  _11
REMARK    6  A    between atoms: _11  and  _12
REMARK    7  A    between atoms: _15  and  _17
REMARK    8  A    between atoms: _17  and  _18
REMARK    9  A    between atoms: _21  and  _23
REMARK   10  A    between atoms: _23  and  _24
REMARK   11  A    between atoms: _23  and  _26
REMARK   12  A    between atoms: _26  and  _27
REMARK   13  A    between atoms: _37  and  _39
REMARK   14  A    between atoms: _39  and  _40
REMARK   15  A    between atoms: _39  and  _42
REMARK   16  A    between atoms: _42  and  _43
REMARK   17  A    between atoms: _45  and  _47
REMARK   18  A    between atoms: _47  and  _48
REMARK   19  A    between atoms: _47  and  _50
REMARK   20  A    between atoms: _50  and  _51
REMARK   21  A    between atoms: _56  and  _57
REMARK   22  A    between atoms: _59  and  _61
REMARK   23  A    between atoms: _61  and  _62
REMARK   24  A    between atoms: _61  and  _64
REMARK   25  A    between atoms: _64  and  _65
REMARK   26  A    between atoms: _70  and  _71
REMARK   27  A    between atoms: _73  and  _75
REMARK   28  A    between atoms: _75  and  _76
REMARK   29  A    between atoms: _75  and  _78
REMARK   30  A    between atoms: _78  and  _79
REMARK   31  A    between atoms: _82  and  _84
REMARK   32  A    between atoms: _84  and  _85
REMARK   33  A    between atoms: _87  and  _89
REMARK   34  A    between atoms: _89  and  _90
REMARK   35  A    between atoms: _89  and  _92
REMARK   36  A    between atoms: _92  and  _93
REMARK   37  A    between atoms: _98  and  _99
REMARK   38  A    between atoms: _101  and  _103
REMARK   39  A    between atoms: _103  and  _104
REMARK   40  A    between atoms: _103  and  _106
REMARK   41  A    between atoms: _106  and  _107
REMARK   42  A    between atoms: _110  and  _112
REMARK   43  A    between atoms: _112  and  _113
REMARK   44  A    between atoms: _112  and  _115
REMARK   45  A    between atoms: _115  and  _116
REMARK   46  A    between atoms: _116  and  _117
REMARK   47  A    between atoms: _117  and  _118
REMARK   48  A    between atoms: _127  and  _129
REMARK   49  A    between atoms: _129  and  _130
REMARK   50  A    between atoms: _129  and  _132
REMARK   51  A    between atoms: _132  and  _133
REMARK   52  A    between atoms: _136  and  _138
REMARK   53  A    between atoms: _138  and  _139
REMARK   54  A    between atoms: _138  and  _141
REMARK   55  A    between atoms: _141  and  _142
REMARK   56  A    between atoms: _145  and  _147
REMARK   57  A    between atoms: _147  and  _148
REMARK   58  A    between atoms: _147  and  _150
REMARK   59  A    between atoms: _150  and  _151
REMARK   60  A    between atoms: _151  and  _152
REMARK   61  A    between atoms: _157  and  _159
REMARK   62  A    between atoms: _159  and  _160
REMARK   63  A    between atoms: _159  and  _162
REMARK   64  A    between atoms: _162  and  _163
REMARK   65  A    between atoms: _168  and  _170
REMARK   66  A    between atoms: _170  and  _171
REMARK   67  A    between atoms: _174  and  _176
REMARK   68  A    between atoms: _176  and  _177
REMARK   69  A    between atoms: _179  and  _181
REMARK   70  A    between atoms: _181  and  _182
REMARK   71  A    between atoms: _181  and  _184
REMARK   72  A    between atoms: _184  and  _185
REMARK   73  A    between atoms: _188  and  _190
REMARK   74  A    between atoms: _190  and  _191
REMARK   75  A    between atoms: _190  and  _193
REMARK   76  A    between atoms: _193  and  _194
REMARK   77  A    between atoms: _194  and  _195
REMARK   78  A    between atoms: _195  and  _196
REMARK   79  A    between atoms: _205  and  _207
REMARK   80  A    between atoms: _207  and  _208
REMARK   81  A    between atoms: _207  and  _210
REMARK   82  A    between atoms: _213  and  _215
REMARK   83  A    between atoms: _215  and  _216
REMARK   84  A    between atoms: _215  and  _218
REMARK   85  A    between atoms: _218  and  _219
REMARK   86  A    between atoms: _224  and  _225
REMARK   87  A    between atoms: _227  and  _229
REMARK   88  A    between atoms: _229  and  _230
REMARK   89  A    between atoms: _229  and  _232
REMARK   90  A    between atoms: _232  and  _233
REMARK   91  A    between atoms: _235  and  _237
REMARK   92  A    between atoms: _237  and  _238
REMARK   93  A    between atoms: _237  and  _240
REMARK   94  A    between atoms: _240  and  _241
REMARK   95  A    between atoms: _246  and  _248
REMARK   96  A    between atoms: _248  and  _249
REMARK   97  A    between atoms: _248  and  _251
REMARK   98  A    between atoms: _251  and  _252
REMARK   99  A    between atoms: _252  and  _253
REMARK  100  A    between atoms: _256  and  _258
REMARK  101  A    between atoms: _258  and  _259
REMARK  102  A    between atoms: _258  and  _261
REMARK  103  A    between atoms: _261  and  _262
REMARK  104  A    between atoms: _267  and  _268
REMARK  105  A    between atoms: _270  and  _272
REMARK  106  A    between atoms: _272  and  _273
REMARK  107  A    between atoms: _276  and  _278
REMARK  108  A    between atoms: _278  and  _279
REMARK  109  A    between atoms: _278  and  _281
REMARK  110  A    between atoms: _281  and  _282
REMARK  111  A    between atoms: _286  and  _287
REMARK  112  A    between atoms: _292  and  _294
REMARK  113  A    between atoms: _294  and  _295
REMARK  114  A    between atoms: _294  and  _297
REMARK  115  A    between atoms: _297  and  _298
REMARK  116  A    between atoms: _301  and  _303
REMARK  117  A    between atoms: _303  and  _304
REMARK  118  A    between atoms: _303  and  _306
REMARK  119  A    between atoms: _306  and  _307
REMARK  120  A    between atoms: _307  and  _308
REMARK  121  A    between atoms: _313  and  _315
REMARK  122  A    between atoms: _315  and  _316
REMARK  123  A    between atoms: _315  and  _318
REMARK  124  A    between atoms: _318  and  _319
REMARK  125  A    between atoms: _322  and  _324
REMARK  126  A    between atoms: _324  and  _325
REMARK  127  A    between atoms: _324  and  _327
REMARK  128  A    between atoms: _327  and  _328
REMARK  129  A    between atoms: _331  and  _333
REMARK  130  A    between atoms: _333  and  _334
REMARK  131  A    between atoms: _333  and  _336
REMARK  132  A    between atoms: _336  and  _337
REMARK  133  A    between atoms: _343  and  _345
REMARK  134  A    between atoms: _345  and  _346
REMARK  135  A    between atoms: _348  and  _350
REMARK  136  A    between atoms: _350  and  _351
REMARK  137  A    between atoms: _350  and  _353
REMARK  138  A    between atoms: _353  and  _354
REMARK  139  A    between atoms: _357  and  _359
REMARK  140  A    between atoms: _359  and  _360
REMARK  141  A    between atoms: _363  and  _365
REMARK  142  A    between atoms: _365  and  _366
REMARK  143  A    between atoms: _365  and  _368
REMARK  144  A    between atoms: _368  and  _369
REMARK  145  A    between atoms: _379  and  _381
REMARK  146  A    between atoms: _381  and  _382
REMARK  147  A    between atoms: _381  and  _384
REMARK  148  A    between atoms: _384  and  _385
REMARK  149  A    between atoms: _387  and  _389
REMARK  150  A    between atoms: _389  and  _390
REMARK  151  A    between atoms: _389  and  _392
REMARK  152  A    between atoms: _392  and  _393
REMARK  153  A    between atoms: _398  and  _399
REMARK  154  A    between atoms: _401  and  _403
REMARK  155  A    between atoms: _403  and  _404
REMARK  156  A    between atoms: _403  and  _406
REMARK  157  A    between atoms: _406  and  _407
REMARK  158  A    between atoms: _412  and  _413
REMARK  159  A    between atoms: _415  and  _417
REMARK  160  A    between atoms: _417  and  _418
REMARK  161  A    between atoms: _417  and  _420
REMARK  162  A    between atoms: _420  and  _421
REMARK  163  A    between atoms: _424  and  _426
REMARK  164  A    between atoms: _426  and  _427
REMARK  165  A    between atoms: _429  and  _431
REMARK  166  A    between atoms: _431  and  _432
REMARK  167  A    between atoms: _431  and  _434
REMARK  168  A    between atoms: _434  and  _435
REMARK  169  A    between atoms: _440  and  _441
REMARK  170  A    between atoms: _443  and  _445
REMARK  171  A    between atoms: _445  and  _446
REMARK  172  A    between atoms: _445  and  _448
REMARK  173  A    between atoms: _448  and  _449
REMARK  174  A    between atoms: _452  and  _454
REMARK  175  A    between atoms: _454  and  _455
REMARK  176  A    between atoms: _454  and  _457
REMARK  177  A    between atoms: _457  and  _458
REMARK  178  A    between atoms: _458  and  _459
REMARK  179  A    between atoms: _459  and  _460
REMARK  180  A    between atoms: _469  and  _471
REMARK  181  A    between atoms: _471  and  _472
REMARK  182  A    between atoms: _471  and  _474
REMARK  183  A    between atoms: _474  and  _475
REMARK  184  A    between atoms: _478  and  _480
REMARK  185  A    between atoms: _480  and  _481
REMARK  186  A    between atoms: _480  and  _483
REMARK  187  A    between atoms: _483  and  _484
REMARK  188  A    between atoms: _487  and  _489
REMARK  189  A    between atoms: _489  and  _490
REMARK  190  A    between atoms: _489  and  _492
REMARK  191  A    between atoms: _492  and  _493
REMARK  192  A    between atoms: _496  and  _498
REMARK  193  A    between atoms: _498  and  _499
REMARK  194  A    between atoms: _498  and  _501
REMARK  195  A    between atoms: _501  and  _502
REMARK  196  A    between atoms: _505  and  _507
REMARK  197  A    between atoms: _507  and  _508
REMARK  198  A    between atoms: _507  and  _510
REMARK  199  A    between atoms: _510  and  _511
REMARK  200  A    between atoms: _511  and  _512
REMARK  201  A    between atoms: _517  and  _519
REMARK  202  A    between atoms: _519  and  _520
REMARK  203  A    between atoms: _519  and  _522
REMARK  204  A    between atoms: _522  and  _523
REMARK  205  A    between atoms: _528  and  _530
REMARK  206  A    between atoms: _530  and  _531
REMARK  207  A    between atoms: _534  and  _536
REMARK  208  A    between atoms: _536  and  _537
REMARK  209  A    between atoms: _536  and  _539
REMARK  210  A    between atoms: _539  and  _540
REMARK  211  A    between atoms: _543  and  _545
REMARK  212  A    between atoms: _545  and  _546
REMARK  213  A    between atoms: _545  and  _548
REMARK  214  A    between atoms: _548  and  _549
REMARK  215  A    between atoms: _549  and  _550
REMARK  216  A    between atoms: _550  and  _551
REMARK  217  A    between atoms: _560  and  _562
REMARK  218  A    between atoms: _562  and  _563
REMARK  219  A    between atoms: _562  and  _565
REMARK  220  A    between atoms: _568  and  _570
REMARK  221  A    between atoms: _570  and  _571
REMARK  222  A    between atoms: _570  and  _573
REMARK  223  A    between atoms: _573  and  _574
REMARK  224  A    between atoms: _579  and  _580
REMARK  225  A    between atoms: _582  and  _584
REMARK  226  A    between atoms: _584  and  _585
REMARK  227  A    between atoms: _584  and  _587
REMARK  228  A    between atoms: _587  and  _588
REMARK  229  A    between atoms: _590  and  _592
REMARK  230  A    between atoms: _592  and  _593
REMARK  231  A    between atoms: _592  and  _595
REMARK  232  A    between atoms: _595  and  _596
REMARK  233  A    between atoms: _601  and  _603
REMARK  234  A    between atoms: _603  and  _604
REMARK  235  A    between atoms: _603  and  _606
REMARK  236  A    between atoms: _606  and  _607
REMARK  237  A    between atoms: _609  and  _611
REMARK  238  A    between atoms: _611  and  _612
REMARK  239  A    between atoms: _611  and  _614
REMARK  240  A    between atoms: _614  and  _615
REMARK  241  A    between atoms: _615  and  _616
REMARK  242  A    between atoms: _619  and  _621
REMARK  243  A    between atoms: _621  and  _622
REMARK  244  A    between atoms: _621  and  _624
REMARK  245  A    between atoms: _624  and  _625
REMARK  246  A    between atoms: _630  and  _631
REMARK  247  A    between atoms: _633  and  _635
REMARK  248  A    between atoms: _635  and  _636
REMARK  249  A    between atoms: _639  and  _641
REMARK  250  A    between atoms: _641  and  _642
REMARK  251  A    between atoms: _641  and  _644
REMARK  252  A    between atoms: _644  and  _645
REMARK  253  A    between atoms: _649  and  _650
REMARK  254  A    between atoms: _655  and  _657
REMARK  255  A    between atoms: _657  and  _658
REMARK  256  A    between atoms: _657  and  _660
REMARK  257  A    between atoms: _660  and  _661
REMARK  258  A    between atoms: _664  and  _666
REMARK  259  A    between atoms: _666  and  _667
REMARK  260  A    between atoms: _666  and  _669
REMARK  261  A    between atoms: _669  and  _670
REMARK  262  A    between atoms: _670  and  _671
REMARK  263  A    between atoms: _676  and  _678
REMARK  264  A    between atoms: _678  and  _679
REMARK  265  A    between atoms: _678  and  _681
REMARK  266  A    between atoms: _681  and  _682
REMARK  267  A    between atoms: _685  and  _687
REMARK  268  A    between atoms: _687  and  _688
REMARK  269  A    between atoms: _687  and  _690
REMARK  270  A    between atoms: _690  and  _691
REMARK                            x       y       z     vdW  Elec       q    Type
REMARK                         _______ _______ _______ _____ _____    ______ ____
ROOT
ATOM      1  O   HOH     1      40.383  35.916  11.977  0.00  0.00    +0.000 OA
ENDROOT
TORSDOF 0
REMARK  Name = ../refined-set-2016/4loi/4loi_pocket.pdb
REMARK  270 active torsions:
REMARK  status: ('A' for Active; 'I' for Inactive)
REMARK    1  A    between atoms: _1  and  _3
REMARK    2  A    between atoms: _3  and  _4
REMARK    3  A    between atoms: _6  and  _8
REMARK    4  A    between atoms: _8  and  _9
REMARK    5  A    between atoms: _8  and  _11
REMARK    6  A    between atoms: _11  and  _12
REMARK    7  A    between atoms: _15  and  _17
REMARK    8  A    between atoms: _17  and  _18
REMARK    9  A    between atoms: _21  and  _23
REMARK   10  A    between atoms: _23  and  _24
REMARK   11  A    between atoms: _23  and  _26
REMARK   12  A    between atoms: _26  and  _27
REMARK   13  A    between atoms: _37  and  _39
REMARK   14  A    between atoms: _39  and  _40
REMARK   15  A    between atoms: _39  and  _42
REMARK   16  A    between atoms: _42  and  _43
REMARK   17  A    between atoms: _45  and  _47
REMARK   18  A    between atoms: _47  and  _48
REMARK   19  A    between atoms: _47  and  _50
REMARK   20  A    between atoms: _50  and  _51
REMARK   21  A    between atoms: _56  and  _57
REMARK   22  A    between atoms: _59  and  _61
REMARK   23  A    between atoms: _61  and  _62
REMARK   24  A    between atoms: _61  and  _64
REMARK   25  A    between atoms: _64  and  _65
REMARK   26  A    between atoms: _70  and  _71
REMARK   27  A    between atoms: _73  and  _75
REMARK   28  A    between atoms: _75  and  _76
REMARK   29  A    between atoms: _75  and  _78
REMARK   30  A    between atoms: _78  and  _79
REMARK   31  A    between atoms: _82  and  _84
REMARK   32  A    between atoms: _84  and  _85
REMARK   33  A    between atoms: _87  and  _89
REMARK   34  A    between atoms: _89  and  _90
REMARK   35  A    between atoms: _89  and  _92
REMARK   36  A    between atoms: _92  and  _93
REMARK   37  A    between atoms: _98  and  _99
REMARK   38  A    between atoms: _101  and  _103
REMARK   39  A    between atoms: _103  and  _104
REMARK   40  A    between atoms: _103  and  _106
REMARK   41  A    between atoms: _106  and  _107
REMARK   42  A    between atoms: _110  and  _112
REMARK   43  A    between atoms: _112  and  _113
REMARK   44  A    between atoms: _112  and  _115
REMARK   45  A    between atoms: _115  and  _116
REMARK   46  A    between atoms: _116  and  _117
REMARK   47  A    between atoms: _117  and  _118
REMARK   48  A    between atoms: _127  and  _129
REMARK   49  A    between atoms: _129  and  _130
REMARK   50  A    between atoms: _129  and  _132
REMARK   51  A    between atoms: _132  and  _133
REMARK   52  A    between atoms: _136  and  _138
REMARK   53  A    between atoms: _138  and  _139
REMARK   54  A    between atoms: _138  and  _141
REMARK   55  A    between atoms: _141  and  _142
REMARK   56  A    between atoms: _145  and  _147
REMARK   57  A    between atoms: _147  and  _148
REMARK   58  A    between atoms: _147  and  _150
REMARK   59  A    between atoms: _150  and  _151
REMARK   60  A    between atoms: _151  and  _152
REMARK   61  A    between atoms: _157  and  _159
REMARK   62  A    between atoms: _159  and  _160
REMARK   63  A    between atoms: _159  and  _162
REMARK   64  A    between atoms: _162  and  _163
REMARK   65  A    between atoms: _168  and  _170
REMARK   66  A    between atoms: _170  and  _171
REMARK   67  A    between atoms: _174  and  _176
REMARK   68  A    between atoms: _176  and  _177
REMARK   69  A    between atoms: _179  and  _181
REMARK   70  A    between atoms: _181  and  _182
REMARK   71  A    between atoms: _181  and  _184
REMARK   72  A    between atoms: _184  and  _185
REMARK   73  A    between atoms: _188  and  _190
REMARK   74  A    between atoms: _190  and  _191
REMARK   75  A    between atoms: _190  and  _193
REMARK   76  A    between atoms: _193  and  _194
REMARK   77  A    between atoms: _194  and  _195
REMARK   78  A    between atoms: _195  and  _196
REMARK   79  A    between atoms: _205  and  _207
REMARK   80  A    between atoms: _207  and  _208
REMARK   81  A    between atoms: _207  and  _210
REMARK   82  A    between atoms: _213  and  _215
REMARK   83  A    between atoms: _215  and  _216
REMARK   84  A    between atoms: _215  and  _218
REMARK   85  A    between atoms: _218  and  _219
REMARK   86  A    between atoms: _224  and  _225
REMARK   87  A    between atoms: _227  and  _229
REMARK   88  A    between atoms: _229  and  _230
REMARK   89  A    between atoms: _229  and  _232
REMARK   90  A    between atoms: _232  and  _233
REMARK   91  A    between atoms: _235  and  _237
REMARK   92  A    between atoms: _237  and  _238
REMARK   93  A    between atoms: _237  and  _240
REMARK   94  A    between atoms: _240  and  _241
REMARK   95  A    between atoms: _246  and  _248
REMARK   96  A    between atoms: _248  and  _249
REMARK   97  A    between atoms: _248  and  _251
REMARK   98  A    between atoms: _251  and  _252
REMARK   99  A    between atoms: _252  and  _253
REMARK  100  A    between atoms: _256  and  _258
REMARK  101  A    between atoms: _258  and  _259
REMARK  102  A    between atoms: _258  and  _261
REMARK  103  A    between atoms: _261  and  _262
REMARK  104  A    between atoms: _267  and  _268
REMARK  105  A    between atoms: _270  and  _272
REMARK  106  A    between atoms: _272  and  _273
REMARK  107  A    between atoms: _276  and  _278
REMARK  108  A    between atoms: _278  and  _279
REMARK  109  A    between atoms: _278  and  _281
REMARK  110  A    between atoms: _281  and  _282
REMARK  111  A    between atoms: _286  and  _287
REMARK  112  A    between atoms: _292  and  _294
REMARK  113  A    between atoms: _294  and  _295
REMARK  114  A    between atoms: _294  and  _297
REMARK  115  A    between atoms: _297  and  _298
REMARK  116  A    between atoms: _301  and  _303
REMARK  117  A    between atoms: _303  and  _304
REMARK  118  A    between atoms: _303  and  _306
REMARK  119  A    between atoms: _306  and  _307
REMARK  120  A    between atoms: _307  and  _308
REMARK  121  A    between atoms: _313  and  _315
REMARK  122  A    between atoms: _315  and  _316
REMARK  123  A    between atoms: _315  and  _318
REMARK  124  A    between atoms: _318  and  _319
REMARK  125  A    between atoms: _322  and  _324
REMARK  126  A    between atoms: _324  and  _325
REMARK  127  A    between atoms: _324  and  _327
REMARK  128  A    between atoms: _327  and  _328
REMARK  129  A    between atoms: _331  and  _333
REMARK  130  A    between atoms: _333  and  _334
REMARK  131  A    between atoms: _333  and  _336
REMARK  132  A    between atoms: _336  and  _337
REMARK  133  A    between atoms: _343  and  _345
REMARK  134  A    between atoms: _345  and  _346
REMARK  135  A    between atoms: _348  and  _350
REMARK  136  A    between atoms: _350  and  _351
REMARK  137  A    between atoms: _350  and  _353
REMARK  138  A    between atoms: _353  and  _354
REMARK  139  A    between atoms: _357  and  _359
REMARK  140  A    between atoms: _359  and  _360
REMARK  141  A    between atoms: _363  and  _365
REMARK  142  A    between atoms: _365  and  _366
REMARK  143  A    between atoms: _365  and  _368
REMARK  144  A    between atoms: _368  and  _369
REMARK  145  A    between atoms: _379  and  _381
REMARK  146  A    between atoms: _381  and  _382
REMARK  147  A    between atoms: _381  and  _384
REMARK  148  A    between atoms: _384  and  _385
REMARK  149  A    between atoms: _387  and  _389
REMARK  150  A    between atoms: _389  and  _390
REMARK  151  A    between atoms: _389  and  _392
REMARK  152  A    between atoms: _392  and  _393
REMARK  153  A    between atoms: _398  and  _399
REMARK  154  A    between atoms: _401  and  _403
REMARK  155  A    between atoms: _403  and  _404
REMARK  156  A    between atoms: _403  and  _406
REMARK  157  A    between atoms: _406  and  _407
REMARK  158  A    between atoms: _412  and  _413
REMARK  159  A    between atoms: _415  and  _417
REMARK  160  A    between atoms: _417  and  _418
REMARK  161  A    between atoms: _417  and  _420
REMARK  162  A    between atoms: _420  and  _421
REMARK  163  A    between atoms: _424  and  _426
REMARK  164  A    between atoms: _426  and  _427
REMARK  165  A    between atoms: _429  and  _431
REMARK  166  A    between atoms: _431  and  _432
REMARK  167  A    between atoms: _431  and  _434
REMARK  168  A    between atoms: _434  and  _435
REMARK  169  A    between atoms: _440  and  _441
REMARK  170  A    between atoms: _443  and  _445
REMARK  171  A    between atoms: _445  and  _446
REMARK  172  A    between atoms: _445  and  _448
REMARK  173  A    between atoms: _448  and  _449
REMARK  174  A    between atoms: _452  and  _454
REMARK  175  A    between atoms: _454  and  _455
REMARK  176  A    between atoms: _454  and  _457
REMARK  177  A    between atoms: _457  and  _458
REMARK  178  A    between atoms: _458  and  _459
REMARK  179  A    between atoms: _459  and  _460
REMARK  180  A    between atoms: _469  and  _471
REMARK  181  A    between atoms: _471  and  _472
REMARK  182  A    between atoms: _471  and  _474
REMARK  183  A    between atoms: _474  and  _475
REMARK  184  A    between atoms: _478  and  _480
REMARK  185  A    between atoms: _480  and  _481
REMARK  186  A    between atoms: _480  and  _483
REMARK  187  A    between atoms: _483  and  _484
REMARK  188  A    between atoms: _487  and  _489
REMARK  189  A    between atoms: _489  and  _490
REMARK  190  A    between atoms: _489  and  _492
REMARK  191  A    between atoms: _492  and  _493
REMARK  192  A    between atoms: _496  and  _498
REMARK  193  A    between atoms: _498  and  _499
REMARK  194  A    between atoms: _498  and  _501
REMARK  195  A    between atoms: _501  and  _502
REMARK  196  A    between atoms: _505  and  _507
REMARK  197  A    between atoms: _507  and  _508
REMARK  198  A    between atoms: _507  and  _510
REMARK  199  A    between atoms: _510  and  _511
REMARK  200  A    between atoms: _511  and  _512
REMARK  201  A    between atoms: _517  and  _519
REMARK  202  A    between atoms: _519  and  _520
REMARK  203  A    between atoms: _519  and  _522
REMARK  204  A    between atoms: _522  and  _523
REMARK  205  A    between atoms: _528  and  _530
REMARK  206  A    between atoms: _530  and  _531
REMARK  207  A    between atoms: _534  and  _536
REMARK  208  A    between atoms: _536  and  _537
REMARK  209  A    between atoms: _536  and  _539
REMARK  210  A    between atoms: _539  and  _540
REMARK  211  A    between atoms: _543  and  _545
REMARK  212  A    between atoms: _545  and  _546
REMARK  213  A    between atoms: _545  and  _548
REMARK  214  A    between atoms: _548  and  _549
REMARK  215  A    between atoms: _549  and  _550
REMARK  216  A    between atoms: _550  and  _551
REMARK  217  A    between atoms: _560  and  _562
REMARK  218  A    between atoms: _562  and  _563
REMARK  219  A    between atoms: _562  and  _565
REMARK  220  A    between atoms: _568  and  _570
REMARK  221  A    between atoms: _570  and  _571
REMARK  222  A    between atoms: _570  and  _573
REMARK  223  A    between atoms: _573  and  _574
REMARK  224  A    between atoms: _579  and  _580
REMARK  225  A    between atoms: _582  and  _584
REMARK  226  A    between atoms: _584  and  _585
REMARK  227  A    between atoms: _584  and  _587
REMARK  228  A    between atoms: _587  and  _588
REMARK  229  A    between atoms: _590  and  _592
REMARK  230  A    between atoms: _592  and  _593
REMARK  231  A    between atoms: _592  and  _595
REMARK  232  A    between atoms: _595  and  _596
REMARK  233  A    between atoms: _601  and  _603
REMARK  234  A    between atoms: _603  and  _604
REMARK  235  A    between atoms: _603  and  _606
REMARK  236  A    between atoms: _606  and  _607
REMARK  237  A    between atoms: _609  and  _611
REMARK  238  A    between atoms: _611  and  _612
REMARK  239  A    between atoms: _611  and  _614
REMARK  240  A    between atoms: _614  and  _615
REMARK  241  A    between atoms: _615  and  _616
REMARK  242  A    between atoms: _619  and  _621
REMARK  243  A    between atoms: _621  and  _622
REMARK  244  A    between atoms: _621  and  _624
REMARK  245  A    between atoms: _624  and  _625
REMARK  246  A    between atoms: _630  and  _631
REMARK  247  A    between atoms: _633  and  _635
REMARK  248  A    between atoms: _635  and  _636
REMARK  249  A    between atoms: _639  and  _641
REMARK  250  A    between atoms: _641  and  _642
REMARK  251  A    between atoms: _641  and  _644
REMARK  252  A    between atoms: _644  and  _645
REMARK  253  A    between atoms: _649  and  _650
REMARK  254  A    between atoms: _655  and  _657
REMARK  255  A    between atoms: _657  and  _658
REMARK  256  A    between atoms: _657  and  _660
REMARK  257  A    between atoms: _660  and  _661
REMARK  258  A    between atoms: _664  and  _666
REMARK  259  A    between atoms: _666  and  _667
REMARK  260  A    between atoms: _666  and  _669
REMARK  261  A    between atoms: _669  and  _670
REMARK  262  A    between atoms: _670  and  _671
REMARK  263  A    between atoms: _676  and  _678
REMARK  264  A    between atoms: _678  and  _679
REMARK  265  A    between atoms: _678  and  _681
REMARK  266  A    between atoms: _681  and  _682
REMARK  267  A    between atoms: _685  and  _687
REMARK  268  A    between atoms: _687  and  _688
REMARK  269  A    between atoms: _687  and  _690
REMARK  270  A    between atoms: _690  and  _691
REMARK                            x       y       z     vdW  Elec       q    Type
REMARK                         _______ _______ _______ _____ _____    ______ ____
ROOT
ATOM      1  O   HOH     1      47.882  39.589  14.884  0.00  0.00    +0.000 OA
ENDROOT
TORSDOF 0
REMARK  Name = ../refined-set-2016/4loi/4loi_pocket.pdb
REMARK  270 active torsions:
REMARK  status: ('A' for Active; 'I' for Inactive)
REMARK    1  A    between atoms: _1  and  _3
REMARK    2  A    between atoms: _3  and  _4
REMARK    3  A    between atoms: _6  and  _8
REMARK    4  A    between atoms: _8  and  _9
REMARK    5  A    between atoms: _8  and  _11
REMARK    6  A    between atoms: _11  and  _12
REMARK    7  A    between atoms: _15  and  _17
REMARK    8  A    between atoms: _17  and  _18
REMARK    9  A    between atoms: _21  and  _23
REMARK   10  A    between atoms: _23  and  _24
REMARK   11  A    between atoms: _23  and  _26
REMARK   12  A    between atoms: _26  and  _27
REMARK   13  A    between atoms: _37  and  _39
REMARK   14  A    between atoms: _39  and  _40
REMARK   15  A    between atoms: _39  and  _42
REMARK   16  A    between atoms: _42  and  _43
REMARK   17  A    between atoms: _45  and  _47
REMARK   18  A    between atoms: _47  and  _48
REMARK   19  A    between atoms: _47  and  _50
REMARK   20  A    between atoms: _50  and  _51
REMARK   21  A    between atoms: _56  and  _57
REMARK   22  A    between atoms: _59  and  _61
REMARK   23  A    between atoms: _61  and  _62
REMARK   24  A    between atoms: _61  and  _64
REMARK   25  A    between atoms: _64  and  _65
REMARK   26  A    between atoms: _70  and  _71
REMARK   27  A    between atoms: _73  and  _75
REMARK   28  A    between atoms: _75  and  _76
REMARK   29  A    between atoms: _75  and  _78
REMARK   30  A    between atoms: _78  and  _79
REMARK   31  A    between atoms: _82  and  _84
REMARK   32  A    between atoms: _84  and  _85
REMARK   33  A    between atoms: _87  and  _89
REMARK   34  A    between atoms: _89  and  _90
REMARK   35  A    between atoms: _89  and  _92
REMARK   36  A    between atoms: _92  and  _93
REMARK   37  A    between atoms: _98  and  _99
REMARK   38  A    between atoms: _101  and  _103
REMARK   39  A    between atoms: _103  and  _104
REMARK   40  A    between atoms: _103  and  _106
REMARK   41  A    between atoms: _106  and  _107
REMARK   42  A    between atoms: _110  and  _112
REMARK   43  A    between atoms: _112  and  _113
REMARK   44  A    between atoms: _112  and  _115
REMARK   45  A    between atoms: _115  and  _116
REMARK   46  A    between atoms: _116  and  _117
REMARK   47  A    between atoms: _117  and  _118
REMARK   48  A    between atoms: _127  and  _129
REMARK   49  A    between atoms: _129  and  _130
REMARK   50  A    between atoms: _129  and  _132
REMARK   51  A    between atoms: _132  and  _133
REMARK   52  A    between atoms: _136  and  _138
REMARK   53  A    between atoms: _138  and  _139
REMARK   54  A    between atoms: _138  and  _141
REMARK   55  A    between atoms: _141  and  _142
REMARK   56  A    between atoms: _145  and  _147
REMARK   57  A    between atoms: _147  and  _148
REMARK   58  A    between atoms: _147  and  _150
REMARK   59  A    between atoms: _150  and  _151
REMARK   60  A    between atoms: _151  and  _152
REMARK   61  A    between atoms: _157  and  _159
REMARK   62  A    between atoms: _159  and  _160
REMARK   63  A    between atoms: _159  and  _162
REMARK   64  A    between atoms: _162  and  _163
REMARK   65  A    between atoms: _168  and  _170
REMARK   66  A    between atoms: _170  and  _171
REMARK   67  A    between atoms: _174  and  _176
REMARK   68  A    between atoms: _176  and  _177
REMARK   69  A    between atoms: _179  and  _181
REMARK   70  A    between atoms: _181  and  _182
REMARK   71  A    between atoms: _181  and  _184
REMARK   72  A    between atoms: _184  and  _185
REMARK   73  A    between atoms: _188  and  _190
REMARK   74  A    between atoms: _190  and  _191
REMARK   75  A    between atoms: _190  and  _193
REMARK   76  A    between atoms: _193  and  _194
REMARK   77  A    between atoms: _194  and  _195
REMARK   78  A    between atoms: _195  and  _196
REMARK   79  A    between atoms: _205  and  _207
REMARK   80  A    between atoms: _207  and  _208
REMARK   81  A    between atoms: _207  and  _210
REMARK   82  A    between atoms: _213  and  _215
REMARK   83  A    between atoms: _215  and  _216
REMARK   84  A    between atoms: _215  and  _218
REMARK   85  A    between atoms: _218  and  _219
REMARK   86  A    between atoms: _224  and  _225
REMARK   87  A    between atoms: _227  and  _229
REMARK   88  A    between atoms: _229  and  _230
REMARK   89  A    between atoms: _229  and  _232
REMARK   90  A    between atoms: _232  and  _233
REMARK   91  A    between atoms: _235  and  _237
REMARK   92  A    between atoms: _237  and  _238
REMARK   93  A    between atoms: _237  and  _240
REMARK   94  A    between atoms: _240  and  _241
REMARK   95  A    between atoms: _246  and  _248
REMARK   96  A    between atoms: _248  and  _249
REMARK   97  A    between atoms: _248  and  _251
REMARK   98  A    between atoms: _251  and  _252
REMARK   99  A    between atoms: _252  and  _253
REMARK  100  A    between atoms: _256  and  _258
REMARK  101  A    between atoms: _258  and  _259
REMARK  102  A    between atoms: _258  and  _261
REMARK  103  A    between atoms: _261  and  _262
REMARK  104  A    between atoms: _267  and  _268
REMARK  105  A    between atoms: _270  and  _272
REMARK  106  A    between atoms: _272  and  _273
REMARK  107  A    between atoms: _276  and  _278
REMARK  108  A    between atoms: _278  and  _279
REMARK  109  A    between atoms: _278  and  _281
REMARK  110  A    between atoms: _281  and  _282
REMARK  111  A    between atoms: _286  and  _287
REMARK  112  A    between atoms: _292  and  _294
REMARK  113  A    between atoms: _294  and  _295
REMARK  114  A    between atoms: _294  and  _297
REMARK  115  A    between atoms: _297  and  _298
REMARK  116  A    between atoms: _301  and  _303
REMARK  117  A    between atoms: _303  and  _304
REMARK  118  A    between atoms: _303  and  _306
REMARK  119  A    between atoms: _306  and  _307
REMARK  120  A    between atoms: _307  and  _308
REMARK  121  A    between atoms: _313  and  _315
REMARK  122  A    between atoms: _315  and  _316
REMARK  123  A    between atoms: _315  and  _318
REMARK  124  A    between atoms: _318  and  _319
REMARK  125  A    between atoms: _322  and  _324
REMARK  126  A    between atoms: _324  and  _325
REMARK  127  A    between atoms: _324  and  _327
REMARK  128  A    between atoms: _327  and  _328
REMARK  129  A    between atoms: _331  and  _333
REMARK  130  A    between atoms: _333  and  _334
REMARK  131  A    between atoms: _333  and  _336
REMARK  132  A    between atoms: _336  and  _337
REMARK  133  A    between atoms: _343  and  _345
REMARK  134  A    between atoms: _345  and  _346
REMARK  135  A    between atoms: _348  and  _350
REMARK  136  A    between atoms: _350  and  _351
REMARK  137  A    between atoms: _350  and  _353
REMARK  138  A    between atoms: _353  and  _354
REMARK  139  A    between atoms: _357  and  _359
REMARK  140  A    between atoms: _359  and  _360
REMARK  141  A    between atoms: _363  and  _365
REMARK  142  A    between atoms: _365  and  _366
REMARK  143  A    between atoms: _365  and  _368
REMARK  144  A    between atoms: _368  and  _369
REMARK  145  A    between atoms: _379  and  _381
REMARK  146  A    between atoms: _381  and  _382
REMARK  147  A    between atoms: _381  and  _384
REMARK  148  A    between atoms: _384  and  _385
REMARK  149  A    between atoms: _387  and  _389
REMARK  150  A    between atoms: _389  and  _390
REMARK  151  A    between atoms: _389  and  _392
REMARK  152  A    between atoms: _392  and  _393
REMARK  153  A    between atoms: _398  and  _399
REMARK  154  A    between atoms: _401  and  _403
REMARK  155  A    between atoms: _403  and  _404
REMARK  156  A    between atoms: _403  and  _406
REMARK  157  A    between atoms: _406  and  _407
REMARK  158  A    between atoms: _412  and  _413
REMARK  159  A    between atoms: _415  and  _417
REMARK  160  A    between atoms: _417  and  _418
REMARK  161  A    between atoms: _417  and  _420
REMARK  162  A    between atoms: _420  and  _421
REMARK  163  A    between atoms: _424  and  _426
REMARK  164  A    between atoms: _426  and  _427
REMARK  165  A    between atoms: _429  and  _431
REMARK  166  A    between atoms: _431  and  _432
REMARK  167  A    between atoms: _431  and  _434
REMARK  168  A    between atoms: _434  and  _435
REMARK  169  A    between atoms: _440  and  _441
REMARK  170  A    between atoms: _443  and  _445
REMARK  171  A    between atoms: _445  and  _446
REMARK  172  A    between atoms: _445  and  _448
REMARK  173  A    between atoms: _448  and  _449
REMARK  174  A    between atoms: _452  and  _454
REMARK  175  A    between atoms: _454  and  _455
REMARK  176  A    between atoms: _454  and  _457
REMARK  177  A    between atoms: _457  and  _458
REMARK  178  A    between atoms: _458  and  _459
REMARK  179  A    between atoms: _459  and  _460
REMARK  180  A    between atoms: _469  and  _471
REMARK  181  A    between atoms: _471  and  _472
REMARK  182  A    between atoms: _471  and  _474
REMARK  183  A    between atoms: _474  and  _475
REMARK  184  A    between atoms: _478  and  _480
REMARK  185  A    between atoms: _480  and  _481
REMARK  186  A    between atoms: _480  and  _483
REMARK  187  A    between atoms: _483  and  _484
REMARK  188  A    between atoms: _487  and  _489
REMARK  189  A    between atoms: _489  and  _490
REMARK  190  A    between atoms: _489  and  _492
REMARK  191  A    between atoms: _492  and  _493
REMARK  192  A    between atoms: _496  and  _498
REMARK  193  A    between atoms: _498  and  _499
REMARK  194  A    between atoms: _498  and  _501
REMARK  195  A    between atoms: _501  and  _502
REMARK  196  A    between atoms: _505  and  _507
REMARK  197  A    between atoms: _507  and  _508
REMARK  198  A    between atoms: _507  and  _510
REMARK  199  A    between atoms: _510  and  _511
REMARK  200  A    between atoms: _511  and  _512
REMARK  201  A    between atoms: _517  and  _519
REMARK  202  A    between atoms: _519  and  _520
REMARK  203  A    between atoms: _519  and  _522
REMARK  204  A    between atoms: _522  and  _523
REMARK  205  A    between atoms: _528  and  _530
REMARK  206  A    between atoms: _530  and  _531
REMARK  207  A    between atoms: _534  and  _536
REMARK  208  A    between atoms: _536  and  _537
REMARK  209  A    between atoms: _536  and  _539
REMARK  210  A    between atoms: _539  and  _540
REMARK  211  A    between atoms: _543  and  _545
REMARK  212  A    between atoms: _545  and  _546
REMARK  213  A    between atoms: _545  and  _548
REMARK  214  A    between atoms: _548  and  _549
REMARK  215  A    between atoms: _549  and  _550
REMARK  216  A    between atoms: _550  and  _551
REMARK  217  A    between atoms: _560  and  _562
REMARK  218  A    between atoms: _562  and  _563
REMARK  219  A    between atoms: _562  and  _565
REMARK  220  A    between atoms: _568  and  _570
REMARK  221  A    between atoms: _570  and  _571
REMARK  222  A    between atoms: _570  and  _573
REMARK  223  A    between atoms: _573  and  _574
REMARK  224  A    between atoms: _579  and  _580
REMARK  225  A    between atoms: _582  and  _584
REMARK  226  A    between atoms: _584  and  _585
REMARK  227  A    between atoms: _584  and  _587
REMARK  228  A    between atoms: _587  and  _588
REMARK  229  A    between atoms: _590  and  _592
REMARK  230  A    between atoms: _592  and  _593
REMARK  231  A    between atoms: _592  and  _595
REMARK  232  A    between atoms: _595  and  _596
REMARK  233  A    between atoms: _601  and  _603
REMARK  234  A    between atoms: _603  and  _604
REMARK  235  A    between atoms: _603  and  _606
REMARK  236  A    between atoms: _606  and  _607
REMARK  237  A    between atoms: _609  and  _611
REMARK  238  A    between atoms: _611  and  _612
REMARK  239  A    between atoms: _611  and  _614
REMARK  240  A    between atoms: _614  and  _615
REMARK  241  A    between atoms: _615  and  _616
REMARK  242  A    between atoms: _619  and  _621
REMARK  243  A    between atoms: _621  and  _622
REMARK  244  A    between atoms: _621  and  _624
REMARK  245  A    between atoms: _624  and  _625
REMARK  246  A    between atoms: _630  and  _631
REMARK  247  A    between atoms: _633  and  _635
REMARK  248  A    between atoms: _635  and  _636
REMARK  249  A    between atoms: _639  and  _641
REMARK  250  A    between atoms: _641  and  _642
REMARK  251  A    between atoms: _641  and  _644
REMARK  252  A    between atoms: _644  and  _645
REMARK  253  A    between atoms: _649  and  _650
REMARK  254  A    between atoms: _655  and  _657
REMARK  255  A    between atoms: _657  and  _658
REMARK  256  A    between atoms: _657  and  _660
REMARK  257  A    between atoms: _660  and  _661
REMARK  258  A    between atoms: _664  and  _666
REMARK  259  A    between atoms: _666  and  _667
REMARK  260  A    between atoms: _666  and  _669
REMARK  261  A    between atoms: _669  and  _670
REMARK  262  A    between atoms: _670  and  _671
REMARK  263  A    between atoms: _676  and  _678
REMARK  264  A    between atoms: _678  and  _679
REMARK  265  A    between atoms: _678  and  _681
REMARK  266  A    between atoms: _681  and  _682
REMARK  267  A    between atoms: _685  and  _687
REMARK  268  A    between atoms: _687  and  _688
REMARK  269  A    between atoms: _687  and  _690
REMARK  270  A    between atoms: _690  and  _691
REMARK                            x       y       z     vdW  Elec       q    Type
REMARK                         _______ _______ _______ _____ _____    ______ ____
ROOT
ATOM      1  O   HOH     1      49.002  29.783  16.418  0.00  0.00    +0.000 OA
ENDROOT
TORSDOF 0
REMARK  Name = ../refined-set-2016/4loi/4loi_pocket.pdb
REMARK  270 active torsions:
REMARK  status: ('A' for Active; 'I' for Inactive)
REMARK    1  A    between atoms: _1  and  _3
REMARK    2  A    between atoms: _3  and  _4
REMARK    3  A    between atoms: _6  and  _8
REMARK    4  A    between atoms: _8  and  _9
REMARK    5  A    between atoms: _8  and  _11
REMARK    6  A    between atoms: _11  and  _12
REMARK    7  A    between atoms: _15  and  _17
REMARK    8  A    between atoms: _17  and  _18
REMARK    9  A    between atoms: _21  and  _23
REMARK   10  A    between atoms: _23  and  _24
REMARK   11  A    between atoms: _23  and  _26
REMARK   12  A    between atoms: _26  and  _27
REMARK   13  A    between atoms: _37  and  _39
REMARK   14  A    between atoms: _39  and  _40
REMARK   15  A    between atoms: _39  and  _42
REMARK   16  A    between atoms: _42  and  _43
REMARK   17  A    between atoms: _45  and  _47
REMARK   18  A    between atoms: _47  and  _48
REMARK   19  A    between atoms: _47  and  _50
REMARK   20  A    between atoms: _50  and  _51
REMARK   21  A    between atoms: _56  and  _57
REMARK   22  A    between atoms: _59  and  _61
REMARK   23  A    between atoms: _61  and  _62
REMARK   24  A    between atoms: _61  and  _64
REMARK   25  A    between atoms: _64  and  _65
REMARK   26  A    between atoms: _70  and  _71
REMARK   27  A    between atoms: _73  and  _75
REMARK   28  A    between atoms: _75  and  _76
REMARK   29  A    between atoms: _75  and  _78
REMARK   30  A    between atoms: _78  and  _79
REMARK   31  A    between atoms: _82  and  _84
REMARK   32  A    between atoms: _84  and  _85
REMARK   33  A    between atoms: _87  and  _89
REMARK   34  A    between atoms: _89  and  _90
REMARK   35  A    between atoms: _89  and  _92
REMARK   36  A    between atoms: _92  and  _93
REMARK   37  A    between atoms: _98  and  _99
REMARK   38  A    between atoms: _101  and  _103
REMARK   39  A    between atoms: _103  and  _104
REMARK   40  A    between atoms: _103  and  _106
REMARK   41  A    between atoms: _106  and  _107
REMARK   42  A    between atoms: _110  and  _112
REMARK   43  A    between atoms: _112  and  _113
REMARK   44  A    between atoms: _112  and  _115
REMARK   45  A    between atoms: _115  and  _116
REMARK   46  A    between atoms: _116  and  _117
REMARK   47  A    between atoms: _117  and  _118
REMARK   48  A    between atoms: _127  and  _129
REMARK   49  A    between atoms: _129  and  _130
REMARK   50  A    between atoms: _129  and  _132
REMARK   51  A    between atoms: _132  and  _133
REMARK   52  A    between atoms: _136  and  _138
REMARK   53  A    between atoms: _138  and  _139
REMARK   54  A    between atoms: _138  and  _141
REMARK   55  A    between atoms: _141  and  _142
REMARK   56  A    between atoms: _145  and  _147
REMARK   57  A    between atoms: _147  and  _148
REMARK   58  A    between atoms: _147  and  _150
REMARK   59  A    between atoms: _150  and  _151
REMARK   60  A    between atoms: _151  and  _152
REMARK   61  A    between atoms: _157  and  _159
REMARK   62  A    between atoms: _159  and  _160
REMARK   63  A    between atoms: _159  and  _162
REMARK   64  A    between atoms: _162  and  _163
REMARK   65  A    between atoms: _168  and  _170
REMARK   66  A    between atoms: _170  and  _171
REMARK   67  A    between atoms: _174  and  _176
REMARK   68  A    between atoms: _176  and  _177
REMARK   69  A    between atoms: _179  and  _181
REMARK   70  A    between atoms: _181  and  _182
REMARK   71  A    between atoms: _181  and  _184
REMARK   72  A    between atoms: _184  and  _185
REMARK   73  A    between atoms: _188  and  _190
REMARK   74  A    between atoms: _190  and  _191
REMARK   75  A    between atoms: _190  and  _193
REMARK   76  A    between atoms: _193  and  _194
REMARK   77  A    between atoms: _194  and  _195
REMARK   78  A    between atoms: _195  and  _196
REMARK   79  A    between atoms: _205  and  _207
REMARK   80  A    between atoms: _207  and  _208
REMARK   81  A    between atoms: _207  and  _210
REMARK   82  A    between atoms: _213  and  _215
REMARK   83  A    between atoms: _215  and  _216
REMARK   84  A    between atoms: _215  and  _218
REMARK   85  A    between atoms: _218  and  _219
REMARK   86  A    between atoms: _224  and  _225
REMARK   87  A    between atoms: _227  and  _229
REMARK   88  A    between atoms: _229  and  _230
REMARK   89  A    between atoms: _229  and  _232
REMARK   90  A    between atoms: _232  and  _233
REMARK   91  A    between atoms: _235  and  _237
REMARK   92  A    between atoms: _237  and  _238
REMARK   93  A    between atoms: _237  and  _240
REMARK   94  A    between atoms: _240  and  _241
REMARK   95  A    between atoms: _246  and  _248
REMARK   96  A    between atoms: _248  and  _249
REMARK   97  A    between atoms: _248  and  _251
REMARK   98  A    between atoms: _251  and  _252
REMARK   99  A    between atoms: _252  and  _253
REMARK  100  A    between atoms: _256  and  _258
REMARK  101  A    between atoms: _258  and  _259
REMARK  102  A    between atoms: _258  and  _261
REMARK  103  A    between atoms: _261  and  _262
REMARK  104  A    between atoms: _267  and  _268
REMARK  105  A    between atoms: _270  and  _272
REMARK  106  A    between atoms: _272  and  _273
REMARK  107  A    between atoms: _276  and  _278
REMARK  108  A    between atoms: _278  and  _279
REMARK  109  A    between atoms: _278  and  _281
REMARK  110  A    between atoms: _281  and  _282
REMARK  111  A    between atoms: _286  and  _287
REMARK  112  A    between atoms: _292  and  _294
REMARK  113  A    between atoms: _294  and  _295
REMARK  114  A    between atoms: _294  and  _297
REMARK  115  A    between atoms: _297  and  _298
REMARK  116  A    between atoms: _301  and  _303
REMARK  117  A    between atoms: _303  and  _304
REMARK  118  A    between atoms: _303  and  _306
REMARK  119  A    between atoms: _306  and  _307
REMARK  120  A    between atoms: _307  and  _308
REMARK  121  A    between atoms: _313  and  _315
REMARK  122  A    between atoms: _315  and  _316
REMARK  123  A    between atoms: _315  and  _318
REMARK  124  A    between atoms: _318  and  _319
REMARK  125  A    between atoms: _322  and  _324
REMARK  126  A    between atoms: _324  and  _325
REMARK  127  A    between atoms: _324  and  _327
REMARK  128  A    between atoms: _327  and  _328
REMARK  129  A    between atoms: _331  and  _333
REMARK  130  A    between atoms: _333  and  _334
REMARK  131  A    between atoms: _333  and  _336
REMARK  132  A    between atoms: _336  and  _337
REMARK  133  A    between atoms: _343  and  _345
REMARK  134  A    between atoms: _345  and  _346
REMARK  135  A    between atoms: _348  and  _350
REMARK  136  A    between atoms: _350  and  _351
REMARK  137  A    between atoms: _350  and  _353
REMARK  138  A    between atoms: _353  and  _354
REMARK  139  A    between atoms: _357  and  _359
REMARK  140  A    between atoms: _359  and  _360
REMARK  141  A    between atoms: _363  and  _365
REMARK  142  A    between atoms: _365  and  _366
REMARK  143  A    between atoms: _365  and  _368
REMARK  144  A    between atoms: _368  and  _369
REMARK  145  A    between atoms: _379  and  _381
REMARK  146  A    between atoms: _381  and  _382
REMARK  147  A    between atoms: _381  and  _384
REMARK  148  A    between atoms: _384  and  _385
REMARK  149  A    between atoms: _387  and  _389
REMARK  150  A    between atoms: _389  and  _390
REMARK  151  A    between atoms: _389  and  _392
REMARK  152  A    between atoms: _392  and  _393
REMARK  153  A    between atoms: _398  and  _399
REMARK  154  A    between atoms: _401  and  _403
REMARK  155  A    between atoms: _403  and  _404
REMARK  156  A    between atoms: _403  and  _406
REMARK  157  A    between atoms: _406  and  _407
REMARK  158  A    between atoms: _412  and  _413
REMARK  159  A    between atoms: _415  and  _417
REMARK  160  A    between atoms: _417  and  _418
REMARK  161  A    between atoms: _417  and  _420
REMARK  162  A    between atoms: _420  and  _421
REMARK  163  A    between atoms: _424  and  _426
REMARK  164  A    between atoms: _426  and  _427
REMARK  165  A    between atoms: _429  and  _431
REMARK  166  A    between atoms: _431  and  _432
REMARK  167  A    between atoms: _431  and  _434
REMARK  168  A    between atoms: _434  and  _435
REMARK  169  A    between atoms: _440  and  _441
REMARK  170  A    between atoms: _443  and  _445
REMARK  171  A    between atoms: _445  and  _446
REMARK  172  A    between atoms: _445  and  _448
REMARK  173  A    between atoms: _448  and  _449
REMARK  174  A    between atoms: _452  and  _454
REMARK  175  A    between atoms: _454  and  _455
REMARK  176  A    between atoms: _454  and  _457
REMARK  177  A    between atoms: _457  and  _458
REMARK  178  A    between atoms: _458  and  _459
REMARK  179  A    between atoms: _459  and  _460
REMARK  180  A    between atoms: _469  and  _471
REMARK  181  A    between atoms: _471  and  _472
REMARK  182  A    between atoms: _471  and  _474
REMARK  183  A    between atoms: _474  and  _475
REMARK  184  A    between atoms: _478  and  _480
REMARK  185  A    between atoms: _480  and  _481
REMARK  186  A    between atoms: _480  and  _483
REMARK  187  A    between atoms: _483  and  _484
REMARK  188  A    between atoms: _487  and  _489
REMARK  189  A    between atoms: _489  and  _490
REMARK  190  A    between atoms: _489  and  _492
REMARK  191  A    between atoms: _492  and  _493
REMARK  192  A    between atoms: _496  and  _498
REMARK  193  A    between atoms: _498  and  _499
REMARK  194  A    between atoms: _498  and  _501
REMARK  195  A    between atoms: _501  and  _502
REMARK  196  A    between atoms: _505  and  _507
REMARK  197  A    between atoms: _507  and  _508
REMARK  198  A    between atoms: _507  and  _510
REMARK  199  A    between atoms: _510  and  _511
REMARK  200  A    between atoms: _511  and  _512
REMARK  201  A    between atoms: _517  and  _519
REMARK  202  A    between atoms: _519  and  _520
REMARK  203  A    between atoms: _519  and  _522
REMARK  204  A    between atoms: _522  and  _523
REMARK  205  A    between atoms: _528  and  _530
REMARK  206  A    between atoms: _530  and  _531
REMARK  207  A    between atoms: _534  and  _536
REMARK  208  A    between atoms: _536  and  _537
REMARK  209  A    between atoms: _536  and  _539
REMARK  210  A    between atoms: _539  and  _540
REMARK  211  A    between atoms: _543  and  _545
REMARK  212  A    between atoms: _545  and  _546
REMARK  213  A    between atoms: _545  and  _548
REMARK  214  A    between atoms: _548  and  _549
REMARK  215  A    between atoms: _549  and  _550
REMARK  216  A    between atoms: _550  and  _551
REMARK  217  A    between atoms: _560  and  _562
REMARK  218  A    between atoms: _562  and  _563
REMARK  219  A    between atoms: _562  and  _565
REMARK  220  A    between atoms: _568  and  _570
REMARK  221  A    between atoms: _570  and  _571
REMARK  222  A    between atoms: _570  and  _573
REMARK  223  A    between atoms: _573  and  _574
REMARK  224  A    between atoms: _579  and  _580
REMARK  225  A    between atoms: _582  and  _584
REMARK  226  A    between atoms: _584  and  _585
REMARK  227  A    between atoms: _584  and  _587
REMARK  228  A    between atoms: _587  and  _588
REMARK  229  A    between atoms: _590  and  _592
REMARK  230  A    between atoms: _592  and  _593
REMARK  231  A    between atoms: _592  and  _595
REMARK  232  A    between atoms: _595  and  _596
REMARK  233  A    between atoms: _601  and  _603
REMARK  234  A    between atoms: _603  and  _604
REMARK  235  A    between atoms: _603  and  _606
REMARK  236  A    between atoms: _606  and  _607
REMARK  237  A    between atoms: _609  and  _611
REMARK  238  A    between atoms: _611  and  _612
REMARK  239  A    between atoms: _611  and  _614
REMARK  240  A    between atoms: _614  and  _615
REMARK  241  A    between atoms: _615  and  _616
REMARK  242  A    between atoms: _619  and  _621
REMARK  243  A    between atoms: _621  and  _622
REMARK  244  A    between atoms: _621  and  _624
REMARK  245  A    between atoms: _624  and  _625
REMARK  246  A    between atoms: _630  and  _631
REMARK  247  A    between atoms: _633  and  _635
REMARK  248  A    between atoms: _635  and  _636
REMARK  249  A    between atoms: _639  and  _641
REMARK  250  A    between atoms: _641  and  _642
REMARK  251  A    between atoms: _641  and  _644
REMARK  252  A    between atoms: _644  and  _645
REMARK  253  A    between atoms: _649  and  _650
REMARK  254  A    between atoms: _655  and  _657
REMARK  255  A    between atoms: _657  and  _658
REMARK  256  A    between atoms: _657  and  _660
REMARK  257  A    between atoms: _660  and  _661
REMARK  258  A    between atoms: _664  and  _666
REMARK  259  A    between atoms: _666  and  _667
REMARK  260  A    between atoms: _666  and  _669
REMARK  261  A    between atoms: _669  and  _670
REMARK  262  A    between atoms: _670  and  _671
REMARK  263  A    between atoms: _676  and  _678
REMARK  264  A    between atoms: _678  and  _679
REMARK  265  A    between atoms: _678  and  _681
REMARK  266  A    between atoms: _681  and  _682
REMARK  267  A    between atoms: _685  and  _687
REMARK  268  A    between atoms: _687  and  _688
REMARK  269  A    between atoms: _687  and  _690
REMARK  270  A    between atoms: _690  and  _691
REMARK                            x       y       z     vdW  Elec       q    Type
REMARK                         _______ _______ _______ _____ _____    ______ ____
ROOT
ATOM      1  O   HOH     1      52.114  32.678  15.201  0.00  0.00    +0.000 OA
ENDROOT
TORSDOF 0
REMARK  Name = ../refined-set-2016/4loi/4loi_pocket.pdb
REMARK  270 active torsions:
REMARK  status: ('A' for Active; 'I' for Inactive)
REMARK    1  A    between atoms: _1  and  _3
REMARK    2  A    between atoms: _3  and  _4
REMARK    3  A    between atoms: _6  and  _8
REMARK    4  A    between atoms: _8  and  _9
REMARK    5  A    between atoms: _8  and  _11
REMARK    6  A    between atoms: _11  and  _12
REMARK    7  A    between atoms: _15  and  _17
REMARK    8  A    between atoms: _17  and  _18
REMARK    9  A    between atoms: _21  and  _23
REMARK   10  A    between atoms: _23  and  _24
REMARK   11  A    between atoms: _23  and  _26
REMARK   12  A    between atoms: _26  and  _27
REMARK   13  A    between atoms: _37  and  _39
REMARK   14  A    between atoms: _39  and  _40
REMARK   15  A    between atoms: _39  and  _42
REMARK   16  A    between atoms: _42  and  _43
REMARK   17  A    between atoms: _45  and  _47
REMARK   18  A    between atoms: _47  and  _48
REMARK   19  A    between atoms: _47  and  _50
REMARK   20  A    between atoms: _50  and  _51
REMARK   21  A    between atoms: _56  and  _57
REMARK   22  A    between atoms: _59  and  _61
REMARK   23  A    between atoms: _61  and  _62
REMARK   24  A    between atoms: _61  and  _64
REMARK   25  A    between atoms: _64  and  _65
REMARK   26  A    between atoms: _70  and  _71
REMARK   27  A    between atoms: _73  and  _75
REMARK   28  A    between atoms: _75  and  _76
REMARK   29  A    between atoms: _75  and  _78
REMARK   30  A    between atoms: _78  and  _79
REMARK   31  A    between atoms: _82  and  _84
REMARK   32  A    between atoms: _84  and  _85
REMARK   33  A    between atoms: _87  and  _89
REMARK   34  A    between atoms: _89  and  _90
REMARK   35  A    between atoms: _89  and  _92
REMARK   36  A    between atoms: _92  and  _93
REMARK   37  A    between atoms: _98  and  _99
REMARK   38  A    between atoms: _101  and  _103
REMARK   39  A    between atoms: _103  and  _104
REMARK   40  A    between atoms: _103  and  _106
REMARK   41  A    between atoms: _106  and  _107
REMARK   42  A    between atoms: _110  and  _112
REMARK   43  A    between atoms: _112  and  _113
REMARK   44  A    between atoms: _112  and  _115
REMARK   45  A    between atoms: _115  and  _116
REMARK   46  A    between atoms: _116  and  _117
REMARK   47  A    between atoms: _117  and  _118
REMARK   48  A    between atoms: _127  and  _129
REMARK   49  A    between atoms: _129  and  _130
REMARK   50  A    between atoms: _129  and  _132
REMARK   51  A    between atoms: _132  and  _133
REMARK   52  A    between atoms: _136  and  _138
REMARK   53  A    between atoms: _138  and  _139
REMARK   54  A    between atoms: _138  and  _141
REMARK   55  A    between atoms: _141  and  _142
REMARK   56  A    between atoms: _145  and  _147
REMARK   57  A    between atoms: _147  and  _148
REMARK   58  A    between atoms: _147  and  _150
REMARK   59  A    between atoms: _150  and  _151
REMARK   60  A    between atoms: _151  and  _152
REMARK   61  A    between atoms: _157  and  _159
REMARK   62  A    between atoms: _159  and  _160
REMARK   63  A    between atoms: _159  and  _162
REMARK   64  A    between atoms: _162  and  _163
REMARK   65  A    between atoms: _168  and  _170
REMARK   66  A    between atoms: _170  and  _171
REMARK   67  A    between atoms: _174  and  _176
REMARK   68  A    between atoms: _176  and  _177
REMARK   69  A    between atoms: _179  and  _181
REMARK   70  A    between atoms: _181  and  _182
REMARK   71  A    between atoms: _181  and  _184
REMARK   72  A    between atoms: _184  and  _185
REMARK   73  A    between atoms: _188  and  _190
REMARK   74  A    between atoms: _190  and  _191
REMARK   75  A    between atoms: _190  and  _193
REMARK   76  A    between atoms: _193  and  _194
REMARK   77  A    between atoms: _194  and  _195
REMARK   78  A    between atoms: _195  and  _196
REMARK   79  A    between atoms: _205  and  _207
REMARK   80  A    between atoms: _207  and  _208
REMARK   81  A    between atoms: _207  and  _210
REMARK   82  A    between atoms: _213  and  _215
REMARK   83  A    between atoms: _215  and  _216
REMARK   84  A    between atoms: _215  and  _218
REMARK   85  A    between atoms: _218  and  _219
REMARK   86  A    between atoms: _224  and  _225
REMARK   87  A    between atoms: _227  and  _229
REMARK   88  A    between atoms: _229  and  _230
REMARK   89  A    between atoms: _229  and  _232
REMARK   90  A    between atoms: _232  and  _233
REMARK   91  A    between atoms: _235  and  _237
REMARK   92  A    between atoms: _237  and  _238
REMARK   93  A    between atoms: _237  and  _240
REMARK   94  A    between atoms: _240  and  _241
REMARK   95  A    between atoms: _246  and  _248
REMARK   96  A    between atoms: _248  and  _249
REMARK   97  A    between atoms: _248  and  _251
REMARK   98  A    between atoms: _251  and  _252
REMARK   99  A    between atoms: _252  and  _253
REMARK  100  A    between atoms: _256  and  _258
REMARK  101  A    between atoms: _258  and  _259
REMARK  102  A    between atoms: _258  and  _261
REMARK  103  A    between atoms: _261  and  _262
REMARK  104  A    between atoms: _267  and  _268
REMARK  105  A    between atoms: _270  and  _272
REMARK  106  A    between atoms: _272  and  _273
REMARK  107  A    between atoms: _276  and  _278
REMARK  108  A    between atoms: _278  and  _279
REMARK  109  A    between atoms: _278  and  _281
REMARK  110  A    between atoms: _281  and  _282
REMARK  111  A    between atoms: _286  and  _287
REMARK  112  A    between atoms: _292  and  _294
REMARK  113  A    between atoms: _294  and  _295
REMARK  114  A    between atoms: _294  and  _297
REMARK  115  A    between atoms: _297  and  _298
REMARK  116  A    between atoms: _301  and  _303
REMARK  117  A    between atoms: _303  and  _304
REMARK  118  A    between atoms: _303  and  _306
REMARK  119  A    between atoms: _306  and  _307
REMARK  120  A    between atoms: _307  and  _308
REMARK  121  A    between atoms: _313  and  _315
REMARK  122  A    between atoms: _315  and  _316
REMARK  123  A    between atoms: _315  and  _318
REMARK  124  A    between atoms: _318  and  _319
REMARK  125  A    between atoms: _322  and  _324
REMARK  126  A    between atoms: _324  and  _325
REMARK  127  A    between atoms: _324  and  _327
REMARK  128  A    between atoms: _327  and  _328
REMARK  129  A    between atoms: _331  and  _333
REMARK  130  A    between atoms: _333  and  _334
REMARK  131  A    between atoms: _333  and  _336
REMARK  132  A    between atoms: _336  and  _337
REMARK  133  A    between atoms: _343  and  _345
REMARK  134  A    between atoms: _345  and  _346
REMARK  135  A    between atoms: _348  and  _350
REMARK  136  A    between atoms: _350  and  _351
REMARK  137  A    between atoms: _350  and  _353
REMARK  138  A    between atoms: _353  and  _354
REMARK  139  A    between atoms: _357  and  _359
REMARK  140  A    between atoms: _359  and  _360
REMARK  141  A    between atoms: _363  and  _365
REMARK  142  A    between atoms: _365  and  _366
REMARK  143  A    between atoms: _365  and  _368
REMARK  144  A    between atoms: _368  and  _369
REMARK  145  A    between atoms: _379  and  _381
REMARK  146  A    between atoms: _381  and  _382
REMARK  147  A    between atoms: _381  and  _384
REMARK  148  A    between atoms: _384  and  _385
REMARK  149  A    between atoms: _387  and  _389
REMARK  150  A    between atoms: _389  and  _390
REMARK  151  A    between atoms: _389  and  _392
REMARK  152  A    between atoms: _392  and  _393
REMARK  153  A    between atoms: _398  and  _399
REMARK  154  A    between atoms: _401  and  _403
REMARK  155  A    between atoms: _403  and  _404
REMARK  156  A    between atoms: _403  and  _406
REMARK  157  A    between atoms: _406  and  _407
REMARK  158  A    between atoms: _412  and  _413
REMARK  159  A    between atoms: _415  and  _417
REMARK  160  A    between atoms: _417  and  _418
REMARK  161  A    between atoms: _417  and  _420
REMARK  162  A    between atoms: _420  and  _421
REMARK  163  A    between atoms: _424  and  _426
REMARK  164  A    between atoms: _426  and  _427
REMARK  165  A    between atoms: _429  and  _431
REMARK  166  A    between atoms: _431  and  _432
REMARK  167  A    between atoms: _431  and  _434
REMARK  168  A    between atoms: _434  and  _435
REMARK  169  A    between atoms: _440  and  _441
REMARK  170  A    between atoms: _443  and  _445
REMARK  171  A    between atoms: _445  and  _446
REMARK  172  A    between atoms: _445  and  _448
REMARK  173  A    between atoms: _448  and  _449
REMARK  174  A    between atoms: _452  and  _454
REMARK  175  A    between atoms: _454  and  _455
REMARK  176  A    between atoms: _454  and  _457
REMARK  177  A    between atoms: _457  and  _458
REMARK  178  A    between atoms: _458  and  _459
REMARK  179  A    between atoms: _459  and  _460
REMARK  180  A    between atoms: _469  and  _471
REMARK  181  A    between atoms: _471  and  _472
REMARK  182  A    between atoms: _471  and  _474
REMARK  183  A    between atoms: _474  and  _475
REMARK  184  A    between atoms: _478  and  _480
REMARK  185  A    between atoms: _480  and  _481
REMARK  186  A    between atoms: _480  and  _483
REMARK  187  A    between atoms: _483  and  _484
REMARK  188  A    between atoms: _487  and  _489
REMARK  189  A    between atoms: _489  and  _490
REMARK  190  A    between atoms: _489  and  _492
REMARK  191  A    between atoms: _492  and  _493
REMARK  192  A    between atoms: _496  and  _498
REMARK  193  A    between atoms: _498  and  _499
REMARK  194  A    between atoms: _498  and  _501
REMARK  195  A    between atoms: _501  and  _502
REMARK  196  A    between atoms: _505  and  _507
REMARK  197  A    between atoms: _507  and  _508
REMARK  198  A    between atoms: _507  and  _510
REMARK  199  A    between atoms: _510  and  _511
REMARK  200  A    between atoms: _511  and  _512
REMARK  201  A    between atoms: _517  and  _519
REMARK  202  A    between atoms: _519  and  _520
REMARK  203  A    between atoms: _519  and  _522
REMARK  204  A    between atoms: _522  and  _523
REMARK  205  A    between atoms: _528  and  _530
REMARK  206  A    between atoms: _530  and  _531
REMARK  207  A    between atoms: _534  and  _536
REMARK  208  A    between atoms: _536  and  _537
REMARK  209  A    between atoms: _536  and  _539
REMARK  210  A    between atoms: _539  and  _540
REMARK  211  A    between atoms: _543  and  _545
REMARK  212  A    between atoms: _545  and  _546
REMARK  213  A    between atoms: _545  and  _548
REMARK  214  A    between atoms: _548  and  _549
REMARK  215  A    between atoms: _549  and  _550
REMARK  216  A    between atoms: _550  and  _551
REMARK  217  A    between atoms: _560  and  _562
REMARK  218  A    between atoms: _562  and  _563
REMARK  219  A    between atoms: _562  and  _565
REMARK  220  A    between atoms: _568  and  _570
REMARK  221  A    between atoms: _570  and  _571
REMARK  222  A    between atoms: _570  and  _573
REMARK  223  A    between atoms: _573  and  _574
REMARK  224  A    between atoms: _579  and  _580
REMARK  225  A    between atoms: _582  and  _584
REMARK  226  A    between atoms: _584  and  _585
REMARK  227  A    between atoms: _584  and  _587
REMARK  228  A    between atoms: _587  and  _588
REMARK  229  A    between atoms: _590  and  _592
REMARK  230  A    between atoms: _592  and  _593
REMARK  231  A    between atoms: _592  and  _595
REMARK  232  A    between atoms: _595  and  _596
REMARK  233  A    between atoms: _601  and  _603
REMARK  234  A    between atoms: _603  and  _604
REMARK  235  A    between atoms: _603  and  _606
REMARK  236  A    between atoms: _606  and  _607
REMARK  237  A    between atoms: _609  and  _611
REMARK  238  A    between atoms: _611  and  _612
REMARK  239  A    between atoms: _611  and  _614
REMARK  240  A    between atoms: _614  and  _615
REMARK  241  A    between atoms: _615  and  _616
REMARK  242  A    between atoms: _619  and  _621
REMARK  243  A    between atoms: _621  and  _622
REMARK  244  A    between atoms: _621  and  _624
REMARK  245  A    between atoms: _624  and  _625
REMARK  246  A    between atoms: _630  and  _631
REMARK  247  A    between atoms: _633  and  _635
REMARK  248  A    between atoms: _635  and  _636
REMARK  249  A    between atoms: _639  and  _641
REMARK  250  A    between atoms: _641  and  _642
REMARK  251  A    between atoms: _641  and  _644
REMARK  252  A    between atoms: _644  and  _645
REMARK  253  A    between atoms: _649  and  _650
REMARK  254  A    between atoms: _655  and  _657
REMARK  255  A    between atoms: _657  and  _658
REMARK  256  A    between atoms: _657  and  _660
REMARK  257  A    between atoms: _660  and  _661
REMARK  258  A    between atoms: _664  and  _666
REMARK  259  A    between atoms: _666  and  _667
REMARK  260  A    between atoms: _666  and  _669
REMARK  261  A    between atoms: _669  and  _670
REMARK  262  A    between atoms: _670  and  _671
REMARK  263  A    between atoms: _676  and  _678
REMARK  264  A    between atoms: _678  and  _679
REMARK  265  A    between atoms: _678  and  _681
REMARK  266  A    between atoms: _681  and  _682
REMARK  267  A    between atoms: _685  and  _687
REMARK  268  A    between atoms: _687  and  _688
REMARK  269  A    between atoms: _687  and  _690
REMARK  270  A    between atoms: _690  and  _691
REMARK                            x       y       z     vdW  Elec       q    Type
REMARK                         _______ _______ _______ _____ _____    ______ ____
ROOT
ATOM      1  O   HOH     1      44.452  30.119  20.033  0.00  0.00    +0.000 OA
ENDROOT
TORSDOF 0
REMARK  Name = ../refined-set-2016/4loi/4loi_pocket.pdb
REMARK  270 active torsions:
REMARK  status: ('A' for Active; 'I' for Inactive)
REMARK    1  A    between atoms: _1  and  _3
REMARK    2  A    between atoms: _3  and  _4
REMARK    3  A    between atoms: _6  and  _8
REMARK    4  A    between atoms: _8  and  _9
REMARK    5  A    between atoms: _8  and  _11
REMARK    6  A    between atoms: _11  and  _12
REMARK    7  A    between atoms: _15  and  _17
REMARK    8  A    between atoms: _17  and  _18
REMARK    9  A    between atoms: _21  and  _23
REMARK   10  A    between atoms: _23  and  _24
REMARK   11  A    between atoms: _23  and  _26
REMARK   12  A    between atoms: _26  and  _27
REMARK   13  A    between atoms: _37  and  _39
REMARK   14  A    between atoms: _39  and  _40
REMARK   15  A    between atoms: _39  and  _42
REMARK   16  A    between atoms: _42  and  _43
REMARK   17  A    between atoms: _45  and  _47
REMARK   18  A    between atoms: _47  and  _48
REMARK   19  A    between atoms: _47  and  _50
REMARK   20  A    between atoms: _50  and  _51
REMARK   21  A    between atoms: _56  and  _57
REMARK   22  A    between atoms: _59  and  _61
REMARK   23  A    between atoms: _61  and  _62
REMARK   24  A    between atoms: _61  and  _64
REMARK   25  A    between atoms: _64  and  _65
REMARK   26  A    between atoms: _70  and  _71
REMARK   27  A    between atoms: _73  and  _75
REMARK   28  A    between atoms: _75  and  _76
REMARK   29  A    between atoms: _75  and  _78
REMARK   30  A    between atoms: _78  and  _79
REMARK   31  A    between atoms: _82  and  _84
REMARK   32  A    between atoms: _84  and  _85
REMARK   33  A    between atoms: _87  and  _89
REMARK   34  A    between atoms: _89  and  _90
REMARK   35  A    between atoms: _89  and  _92
REMARK   36  A    between atoms: _92  and  _93
REMARK   37  A    between atoms: _98  and  _99
REMARK   38  A    between atoms: _101  and  _103
REMARK   39  A    between atoms: _103  and  _104
REMARK   40  A    between atoms: _103  and  _106
REMARK   41  A    between atoms: _106  and  _107
REMARK   42  A    between atoms: _110  and  _112
REMARK   43  A    between atoms: _112  and  _113
REMARK   44  A    between atoms: _112  and  _115
REMARK   45  A    between atoms: _115  and  _116
REMARK   46  A    between atoms: _116  and  _117
REMARK   47  A    between atoms: _117  and  _118
REMARK   48  A    between atoms: _127  and  _129
REMARK   49  A    between atoms: _129  and  _130
REMARK   50  A    between atoms: _129  and  _132
REMARK   51  A    between atoms: _132  and  _133
REMARK   52  A    between atoms: _136  and  _138
REMARK   53  A    between atoms: _138  and  _139
REMARK   54  A    between atoms: _138  and  _141
REMARK   55  A    between atoms: _141  and  _142
REMARK   56  A    between atoms: _145  and  _147
REMARK   57  A    between atoms: _147  and  _148
REMARK   58  A    between atoms: _147  and  _150
REMARK   59  A    between atoms: _150  and  _151
REMARK   60  A    between atoms: _151  and  _152
REMARK   61  A    between atoms: _157  and  _159
REMARK   62  A    between atoms: _159  and  _160
REMARK   63  A    between atoms: _159  and  _162
REMARK   64  A    between atoms: _162  and  _163
REMARK   65  A    between atoms: _168  and  _170
REMARK   66  A    between atoms: _170  and  _171
REMARK   67  A    between atoms: _174  and  _176
REMARK   68  A    between atoms: _176  and  _177
REMARK   69  A    between atoms: _179  and  _181
REMARK   70  A    between atoms: _181  and  _182
REMARK   71  A    between atoms: _181  and  _184
REMARK   72  A    between atoms: _184  and  _185
REMARK   73  A    between atoms: _188  and  _190
REMARK   74  A    between atoms: _190  and  _191
REMARK   75  A    between atoms: _190  and  _193
REMARK   76  A    between atoms: _193  and  _194
REMARK   77  A    between atoms: _194  and  _195
REMARK   78  A    between atoms: _195  and  _196
REMARK   79  A    between atoms: _205  and  _207
REMARK   80  A    between atoms: _207  and  _208
REMARK   81  A    between atoms: _207  and  _210
REMARK   82  A    between atoms: _213  and  _215
REMARK   83  A    between atoms: _215  and  _216
REMARK   84  A    between atoms: _215  and  _218
REMARK   85  A    between atoms: _218  and  _219
REMARK   86  A    between atoms: _224  and  _225
REMARK   87  A    between atoms: _227  and  _229
REMARK   88  A    between atoms: _229  and  _230
REMARK   89  A    between atoms: _229  and  _232
REMARK   90  A    between atoms: _232  and  _233
REMARK   91  A    between atoms: _235  and  _237
REMARK   92  A    between atoms: _237  and  _238
REMARK   93  A    between atoms: _237  and  _240
REMARK   94  A    between atoms: _240  and  _241
REMARK   95  A    between atoms: _246  and  _248
REMARK   96  A    between atoms: _248  and  _249
REMARK   97  A    between atoms: _248  and  _251
REMARK   98  A    between atoms: _251  and  _252
REMARK   99  A    between atoms: _252  and  _253
REMARK  100  A    between atoms: _256  and  _258
REMARK  101  A    between atoms: _258  and  _259
REMARK  102  A    between atoms: _258  and  _261
REMARK  103  A    between atoms: _261  and  _262
REMARK  104  A    between atoms: _267  and  _268
REMARK  105  A    between atoms: _270  and  _272
REMARK  106  A    between atoms: _272  and  _273
REMARK  107  A    between atoms: _276  and  _278
REMARK  108  A    between atoms: _278  and  _279
REMARK  109  A    between atoms: _278  and  _281
REMARK  110  A    between atoms: _281  and  _282
REMARK  111  A    between atoms: _286  and  _287
REMARK  112  A    between atoms: _292  and  _294
REMARK  113  A    between atoms: _294  and  _295
REMARK  114  A    between atoms: _294  and  _297
REMARK  115  A    between atoms: _297  and  _298
REMARK  116  A    between atoms: _301  and  _303
REMARK  117  A    between atoms: _303  and  _304
REMARK  118  A    between atoms: _303  and  _306
REMARK  119  A    between atoms: _306  and  _307
REMARK  120  A    between atoms: _307  and  _308
REMARK  121  A    between atoms: _313  and  _315
REMARK  122  A    between atoms: _315  and  _316
REMARK  123  A    between atoms: _315  and  _318
REMARK  124  A    between atoms: _318  and  _319
REMARK  125  A    between atoms: _322  and  _324
REMARK  126  A    between atoms: _324  and  _325
REMARK  127  A    between atoms: _324  and  _327
REMARK  128  A    between atoms: _327  and  _328
REMARK  129  A    between atoms: _331  and  _333
REMARK  130  A    between atoms: _333  and  _334
REMARK  131  A    between atoms: _333  and  _336
REMARK  132  A    between atoms: _336  and  _337
REMARK  133  A    between atoms: _343  and  _345
REMARK  134  A    between atoms: _345  and  _346
REMARK  135  A    between atoms: _348  and  _350
REMARK  136  A    between atoms: _350  and  _351
REMARK  137  A    between atoms: _350  and  _353
REMARK  138  A    between atoms: _353  and  _354
REMARK  139  A    between atoms: _357  and  _359
REMARK  140  A    between atoms: _359  and  _360
REMARK  141  A    between atoms: _363  and  _365
REMARK  142  A    between atoms: _365  and  _366
REMARK  143  A    between atoms: _365  and  _368
REMARK  144  A    between atoms: _368  and  _369
REMARK  145  A    between atoms: _379  and  _381
REMARK  146  A    between atoms: _381  and  _382
REMARK  147  A    between atoms: _381  and  _384
REMARK  148  A    between atoms: _384  and  _385
REMARK  149  A    between atoms: _387  and  _389
REMARK  150  A    between atoms: _389  and  _390
REMARK  151  A    between atoms: _389  and  _392
REMARK  152  A    between atoms: _392  and  _393
REMARK  153  A    between atoms: _398  and  _399
REMARK  154  A    between atoms: _401  and  _403
REMARK  155  A    between atoms: _403  and  _404
REMARK  156  A    between atoms: _403  and  _406
REMARK  157  A    between atoms: _406  and  _407
REMARK  158  A    between atoms: _412  and  _413
REMARK  159  A    between atoms: _415  and  _417
REMARK  160  A    between atoms: _417  and  _418
REMARK  161  A    between atoms: _417  and  _420
REMARK  162  A    between atoms: _420  and  _421
REMARK  163  A    between atoms: _424  and  _426
REMARK  164  A    between atoms: _426  and  _427
REMARK  165  A    between atoms: _429  and  _431
REMARK  166  A    between atoms: _431  and  _432
REMARK  167  A    between atoms: _431  and  _434
REMARK  168  A    between atoms: _434  and  _435
REMARK  169  A    between atoms: _440  and  _441
REMARK  170  A    between atoms: _443  and  _445
REMARK  171  A    between atoms: _445  and  _446
REMARK  172  A    between atoms: _445  and  _448
REMARK  173  A    between atoms: _448  and  _449
REMARK  174  A    between atoms: _452  and  _454
REMARK  175  A    between atoms: _454  and  _455
REMARK  176  A    between atoms: _454  and  _457
REMARK  177  A    between atoms: _457  and  _458
REMARK  178  A    between atoms: _458  and  _459
REMARK  179  A    between atoms: _459  and  _460
REMARK  180  A    between atoms: _469  and  _471
REMARK  181  A    between atoms: _471  and  _472
REMARK  182  A    between atoms: _471  and  _474
REMARK  183  A    between atoms: _474  and  _475
REMARK  184  A    between atoms: _478  and  _480
REMARK  185  A    between atoms: _480  and  _481
REMARK  186  A    between atoms: _480  and  _483
REMARK  187  A    between atoms: _483  and  _484
REMARK  188  A    between atoms: _487  and  _489
REMARK  189  A    between atoms: _489  and  _490
REMARK  190  A    between atoms: _489  and  _492
REMARK  191  A    between atoms: _492  and  _493
REMARK  192  A    between atoms: _496  and  _498
REMARK  193  A    between atoms: _498  and  _499
REMARK  194  A    between atoms: _498  and  _501
REMARK  195  A    between atoms: _501  and  _502
REMARK  196  A    between atoms: _505  and  _507
REMARK  197  A    between atoms: _507  and  _508
REMARK  198  A    between atoms: _507  and  _510
REMARK  199  A    between atoms: _510  and  _511
REMARK  200  A    between atoms: _511  and  _512
REMARK  201  A    between atoms: _517  and  _519
REMARK  202  A    between atoms: _519  and  _520
REMARK  203  A    between atoms: _519  and  _522
REMARK  204  A    between atoms: _522  and  _523
REMARK  205  A    between atoms: _528  and  _530
REMARK  206  A    between atoms: _530  and  _531
REMARK  207  A    between atoms: _534  and  _536
REMARK  208  A    between atoms: _536  and  _537
REMARK  209  A    between atoms: _536  and  _539
REMARK  210  A    between atoms: _539  and  _540
REMARK  211  A    between atoms: _543  and  _545
REMARK  212  A    between atoms: _545  and  _546
REMARK  213  A    between atoms: _545  and  _548
REMARK  214  A    between atoms: _548  and  _549
REMARK  215  A    between atoms: _549  and  _550
REMARK  216  A    between atoms: _550  and  _551
REMARK  217  A    between atoms: _560  and  _562
REMARK  218  A    between atoms: _562  and  _563
REMARK  219  A    between atoms: _562  and  _565
REMARK  220  A    between atoms: _568  and  _570
REMARK  221  A    between atoms: _570  and  _571
REMARK  222  A    between atoms: _570  and  _573
REMARK  223  A    between atoms: _573  and  _574
REMARK  224  A    between atoms: _579  and  _580
REMARK  225  A    between atoms: _582  and  _584
REMARK  226  A    between atoms: _584  and  _585
REMARK  227  A    between atoms: _584  and  _587
REMARK  228  A    between atoms: _587  and  _588
REMARK  229  A    between atoms: _590  and  _592
REMARK  230  A    between atoms: _592  and  _593
REMARK  231  A    between atoms: _592  and  _595
REMARK  232  A    between atoms: _595  and  _596
REMARK  233  A    between atoms: _601  and  _603
REMARK  234  A    between atoms: _603  and  _604
REMARK  235  A    between atoms: _603  and  _606
REMARK  236  A    between atoms: _606  and  _607
REMARK  237  A    between atoms: _609  and  _611
REMARK  238  A    between atoms: _611  and  _612
REMARK  239  A    between atoms: _611  and  _614
REMARK  240  A    between atoms: _614  and  _615
REMARK  241  A    between atoms: _615  and  _616
REMARK  242  A    between atoms: _619  and  _621
REMARK  243  A    between atoms: _621  and  _622
REMARK  244  A    between atoms: _621  and  _624
REMARK  245  A    between atoms: _624  and  _625
REMARK  246  A    between atoms: _630  and  _631
REMARK  247  A    between atoms: _633  and  _635
REMARK  248  A    between atoms: _635  and  _636
REMARK  249  A    between atoms: _639  and  _641
REMARK  250  A    between atoms: _641  and  _642
REMARK  251  A    between atoms: _641  and  _644
REMARK  252  A    between atoms: _644  and  _645
REMARK  253  A    between atoms: _649  and  _650
REMARK  254  A    between atoms: _655  and  _657
REMARK  255  A    between atoms: _657  and  _658
REMARK  256  A    between atoms: _657  and  _660
REMARK  257  A    between atoms: _660  and  _661
REMARK  258  A    between atoms: _664  and  _666
REMARK  259  A    between atoms: _666  and  _667
REMARK  260  A    between atoms: _666  and  _669
REMARK  261  A    between atoms: _669  and  _670
REMARK  262  A    between atoms: _670  and  _671
REMARK  263  A    between atoms: _676  and  _678
REMARK  264  A    between atoms: _678  and  _679
REMARK  265  A    between atoms: _678  and  _681
REMARK  266  A    between atoms: _681  and  _682
REMARK  267  A    between atoms: _685  and  _687
REMARK  268  A    between atoms: _687  and  _688
REMARK  269  A    between atoms: _687  and  _690
REMARK  270  A    between atoms: _690  and  _691
REMARK                            x       y       z     vdW  Elec       q    Type
REMARK                         _______ _______ _______ _____ _____    ______ ____
ROOT
ATOM      1  O   HOH     1      51.434  35.702  15.626  0.00  0.00    +0.000 OA
ENDROOT
TORSDOF 0
REMARK  Name = ../refined-set-2016/4loi/4loi_pocket.pdb
REMARK  270 active torsions:
REMARK  status: ('A' for Active; 'I' for Inactive)
REMARK    1  A    between atoms: _1  and  _3
REMARK    2  A    between atoms: _3  and  _4
REMARK    3  A    between atoms: _6  and  _8
REMARK    4  A    between atoms: _8  and  _9
REMARK    5  A    between atoms: _8  and  _11
REMARK    6  A    between atoms: _11  and  _12
REMARK    7  A    between atoms: _15  and  _17
REMARK    8  A    between atoms: _17  and  _18
REMARK    9  A    between atoms: _21  and  _23
REMARK   10  A    between atoms: _23  and  _24
REMARK   11  A    between atoms: _23  and  _26
REMARK   12  A    between atoms: _26  and  _27
REMARK   13  A    between atoms: _37  and  _39
REMARK   14  A    between atoms: _39  and  _40
REMARK   15  A    between atoms: _39  and  _42
REMARK   16  A    between atoms: _42  and  _43
REMARK   17  A    between atoms: _45  and  _47
REMARK   18  A    between atoms: _47  and  _48
REMARK   19  A    between atoms: _47  and  _50
REMARK   20  A    between atoms: _50  and  _51
REMARK   21  A    between atoms: _56  and  _57
REMARK   22  A    between atoms: _59  and  _61
REMARK   23  A    between atoms: _61  and  _62
REMARK   24  A    between atoms: _61  and  _64
REMARK   25  A    between atoms: _64  and  _65
REMARK   26  A    between atoms: _70  and  _71
REMARK   27  A    between atoms: _73  and  _75
REMARK   28  A    between atoms: _75  and  _76
REMARK   29  A    between atoms: _75  and  _78
REMARK   30  A    between atoms: _78  and  _79
REMARK   31  A    between atoms: _82  and  _84
REMARK   32  A    between atoms: _84  and  _85
REMARK   33  A    between atoms: _87  and  _89
REMARK   34  A    between atoms: _89  and  _90
REMARK   35  A    between atoms: _89  and  _92
REMARK   36  A    between atoms: _92  and  _93
REMARK   37  A    between atoms: _98  and  _99
REMARK   38  A    between atoms: _101  and  _103
REMARK   39  A    between atoms: _103  and  _104
REMARK   40  A    between atoms: _103  and  _106
REMARK   41  A    between atoms: _106  and  _107
REMARK   42  A    between atoms: _110  and  _112
REMARK   43  A    between atoms: _112  and  _113
REMARK   44  A    between atoms: _112  and  _115
REMARK   45  A    between atoms: _115  and  _116
REMARK   46  A    between atoms: _116  and  _117
REMARK   47  A    between atoms: _117  and  _118
REMARK   48  A    between atoms: _127  and  _129
REMARK   49  A    between atoms: _129  and  _130
REMARK   50  A    between atoms: _129  and  _132
REMARK   51  A    between atoms: _132  and  _133
REMARK   52  A    between atoms: _136  and  _138
REMARK   53  A    between atoms: _138  and  _139
REMARK   54  A    between atoms: _138  and  _141
REMARK   55  A    between atoms: _141  and  _142
REMARK   56  A    between atoms: _145  and  _147
REMARK   57  A    between atoms: _147  and  _148
REMARK   58  A    between atoms: _147  and  _150
REMARK   59  A    between atoms: _150  and  _151
REMARK   60  A    between atoms: _151  and  _152
REMARK   61  A    between atoms: _157  and  _159
REMARK   62  A    between atoms: _159  and  _160
REMARK   63  A    between atoms: _159  and  _162
REMARK   64  A    between atoms: _162  and  _163
REMARK   65  A    between atoms: _168  and  _170
REMARK   66  A    between atoms: _170  and  _171
REMARK   67  A    between atoms: _174  and  _176
REMARK   68  A    between atoms: _176  and  _177
REMARK   69  A    between atoms: _179  and  _181
REMARK   70  A    between atoms: _181  and  _182
REMARK   71  A    between atoms: _181  and  _184
REMARK   72  A    between atoms: _184  and  _185
REMARK   73  A    between atoms: _188  and  _190
REMARK   74  A    between atoms: _190  and  _191
REMARK   75  A    between atoms: _190  and  _193
REMARK   76  A    between atoms: _193  and  _194
REMARK   77  A    between atoms: _194  and  _195
REMARK   78  A    between atoms: _195  and  _196
REMARK   79  A    between atoms: _205  and  _207
REMARK   80  A    between atoms: _207  and  _208
REMARK   81  A    between atoms: _207  and  _210
REMARK   82  A    between atoms: _213  and  _215
REMARK   83  A    between atoms: _215  and  _216
REMARK   84  A    between atoms: _215  and  _218
REMARK   85  A    between atoms: _218  and  _219
REMARK   86  A    between atoms: _224  and  _225
REMARK   87  A    between atoms: _227  and  _229
REMARK   88  A    between atoms: _229  and  _230
REMARK   89  A    between atoms: _229  and  _232
REMARK   90  A    between atoms: _232  and  _233
REMARK   91  A    between atoms: _235  and  _237
REMARK   92  A    between atoms: _237  and  _238
REMARK   93  A    between atoms: _237  and  _240
REMARK   94  A    between atoms: _240  and  _241
REMARK   95  A    between atoms: _246  and  _248
REMARK   96  A    between atoms: _248  and  _249
REMARK   97  A    between atoms: _248  and  _251
REMARK   98  A    between atoms: _251  and  _252
REMARK   99  A    between atoms: _252  and  _253
REMARK  100  A    between atoms: _256  and  _258
REMARK  101  A    between atoms: _258  and  _259
REMARK  102  A    between atoms: _258  and  _261
REMARK  103  A    between atoms: _261  and  _262
REMARK  104  A    between atoms: _267  and  _268
REMARK  105  A    between atoms: _270  and  _272
REMARK  106  A    between atoms: _272  and  _273
REMARK  107  A    between atoms: _276  and  _278
REMARK  108  A    between atoms: _278  and  _279
REMARK  109  A    between atoms: _278  and  _281
REMARK  110  A    between atoms: _281  and  _282
REMARK  111  A    between atoms: _286  and  _287
REMARK  112  A    between atoms: _292  and  _294
REMARK  113  A    between atoms: _294  and  _295
REMARK  114  A    between atoms: _294  and  _297
REMARK  115  A    between atoms: _297  and  _298
REMARK  116  A    between atoms: _301  and  _303
REMARK  117  A    between atoms: _303  and  _304
REMARK  118  A    between atoms: _303  and  _306
REMARK  119  A    between atoms: _306  and  _307
REMARK  120  A    between atoms: _307  and  _308
REMARK  121  A    between atoms: _313  and  _315
REMARK  122  A    between atoms: _315  and  _316
REMARK  123  A    between atoms: _315  and  _318
REMARK  124  A    between atoms: _318  and  _319
REMARK  125  A    between atoms: _322  and  _324
REMARK  126  A    between atoms: _324  and  _325
REMARK  127  A    between atoms: _324  and  _327
REMARK  128  A    between atoms: _327  and  _328
REMARK  129  A    between atoms: _331  and  _333
REMARK  130  A    between atoms: _333  and  _334
REMARK  131  A    between atoms: _333  and  _336
REMARK  132  A    between atoms: _336  and  _337
REMARK  133  A    between atoms: _343  and  _345
REMARK  134  A    between atoms: _345  and  _346
REMARK  135  A    between atoms: _348  and  _350
REMARK  136  A    between atoms: _350  and  _351
REMARK  137  A    between atoms: _350  and  _353
REMARK  138  A    between atoms: _353  and  _354
REMARK  139  A    between atoms: _357  and  _359
REMARK  140  A    between atoms: _359  and  _360
REMARK  141  A    between atoms: _363  and  _365
REMARK  142  A    between atoms: _365  and  _366
REMARK  143  A    between atoms: _365  and  _368
REMARK  144  A    between atoms: _368  and  _369
REMARK  145  A    between atoms: _379  and  _381
REMARK  146  A    between atoms: _381  and  _382
REMARK  147  A    between atoms: _381  and  _384
REMARK  148  A    between atoms: _384  and  _385
REMARK  149  A    between atoms: _387  and  _389
REMARK  150  A    between atoms: _389  and  _390
REMARK  151  A    between atoms: _389  and  _392
REMARK  152  A    between atoms: _392  and  _393
REMARK  153  A    between atoms: _398  and  _399
REMARK  154  A    between atoms: _401  and  _403
REMARK  155  A    between atoms: _403  and  _404
REMARK  156  A    between atoms: _403  and  _406
REMARK  157  A    between atoms: _406  and  _407
REMARK  158  A    between atoms: _412  and  _413
REMARK  159  A    between atoms: _415  and  _417
REMARK  160  A    between atoms: _417  and  _418
REMARK  161  A    between atoms: _417  and  _420
REMARK  162  A    between atoms: _420  and  _421
REMARK  163  A    between atoms: _424  and  _426
REMARK  164  A    between atoms: _426  and  _427
REMARK  165  A    between atoms: _429  and  _431
REMARK  166  A    between atoms: _431  and  _432
REMARK  167  A    between atoms: _431  and  _434
REMARK  168  A    between atoms: _434  and  _435
REMARK  169  A    between atoms: _440  and  _441
REMARK  170  A    between atoms: _443  and  _445
REMARK  171  A    between atoms: _445  and  _446
REMARK  172  A    between atoms: _445  and  _448
REMARK  173  A    between atoms: _448  and  _449
REMARK  174  A    between atoms: _452  and  _454
REMARK  175  A    between atoms: _454  and  _455
REMARK  176  A    between atoms: _454  and  _457
REMARK  177  A    between atoms: _457  and  _458
REMARK  178  A    between atoms: _458  and  _459
REMARK  179  A    between atoms: _459  and  _460
REMARK  180  A    between atoms: _469  and  _471
REMARK  181  A    between atoms: _471  and  _472
REMARK  182  A    between atoms: _471  and  _474
REMARK  183  A    between atoms: _474  and  _475
REMARK  184  A    between atoms: _478  and  _480
REMARK  185  A    between atoms: _480  and  _481
REMARK  186  A    between atoms: _480  and  _483
REMARK  187  A    between atoms: _483  and  _484
REMARK  188  A    between atoms: _487  and  _489
REMARK  189  A    between atoms: _489  and  _490
REMARK  190  A    between atoms: _489  and  _492
REMARK  191  A    between atoms: _492  and  _493
REMARK  192  A    between atoms: _496  and  _498
REMARK  193  A    between atoms: _498  and  _499
REMARK  194  A    between atoms: _498  and  _501
REMARK  195  A    between atoms: _501  and  _502
REMARK  196  A    between atoms: _505  and  _507
REMARK  197  A    between atoms: _507  and  _508
REMARK  198  A    between atoms: _507  and  _510
REMARK  199  A    between atoms: _510  and  _511
REMARK  200  A    between atoms: _511  and  _512
REMARK  201  A    between atoms: _517  and  _519
REMARK  202  A    between atoms: _519  and  _520
REMARK  203  A    between atoms: _519  and  _522
REMARK  204  A    between atoms: _522  and  _523
REMARK  205  A    between atoms: _528  and  _530
REMARK  206  A    between atoms: _530  and  _531
REMARK  207  A    between atoms: _534  and  _536
REMARK  208  A    between atoms: _536  and  _537
REMARK  209  A    between atoms: _536  and  _539
REMARK  210  A    between atoms: _539  and  _540
REMARK  211  A    between atoms: _543  and  _545
REMARK  212  A    between atoms: _545  and  _546
REMARK  213  A    between atoms: _545  and  _548
REMARK  214  A    between atoms: _548  and  _549
REMARK  215  A    between atoms: _549  and  _550
REMARK  216  A    between atoms: _550  and  _551
REMARK  217  A    between atoms: _560  and  _562
REMARK  218  A    between atoms: _562  and  _563
REMARK  219  A    between atoms: _562  and  _565
REMARK  220  A    between atoms: _568  and  _570
REMARK  221  A    between atoms: _570  and  _571
REMARK  222  A    between atoms: _570  and  _573
REMARK  223  A    between atoms: _573  and  _574
REMARK  224  A    between atoms: _579  and  _580
REMARK  225  A    between atoms: _582  and  _584
REMARK  226  A    between atoms: _584  and  _585
REMARK  227  A    between atoms: _584  and  _587
REMARK  228  A    between atoms: _587  and  _588
REMARK  229  A    between atoms: _590  and  _592
REMARK  230  A    between atoms: _592  and  _593
REMARK  231  A    between atoms: _592  and  _595
REMARK  232  A    between atoms: _595  and  _596
REMARK  233  A    between atoms: _601  and  _603
REMARK  234  A    between atoms: _603  and  _604
REMARK  235  A    between atoms: _603  and  _606
REMARK  236  A    between atoms: _606  and  _607
REMARK  237  A    between atoms: _609  and  _611
REMARK  238  A    between atoms: _611  and  _612
REMARK  239  A    between atoms: _611  and  _614
REMARK  240  A    between atoms: _614  and  _615
REMARK  241  A    between atoms: _615  and  _616
REMARK  242  A    between atoms: _619  and  _621
REMARK  243  A    between atoms: _621  and  _622
REMARK  244  A    between atoms: _621  and  _624
REMARK  245  A    between atoms: _624  and  _625
REMARK  246  A    between atoms: _630  and  _631
REMARK  247  A    between atoms: _633  and  _635
REMARK  248  A    between atoms: _635  and  _636
REMARK  249  A    between atoms: _639  and  _641
REMARK  250  A    between atoms: _641  and  _642
REMARK  251  A    between atoms: _641  and  _644
REMARK  252  A    between atoms: _644  and  _645
REMARK  253  A    between atoms: _649  and  _650
REMARK  254  A    between atoms: _655  and  _657
REMARK  255  A    between atoms: _657  and  _658
REMARK  256  A    between atoms: _657  and  _660
REMARK  257  A    between atoms: _660  and  _661
REMARK  258  A    between atoms: _664  and  _666
REMARK  259  A    between atoms: _666  and  _667
REMARK  260  A    between atoms: _666  and  _669
REMARK  261  A    between atoms: _669  and  _670
REMARK  262  A    between atoms: _670  and  _671
REMARK  263  A    between atoms: _676  and  _678
REMARK  264  A    between atoms: _678  and  _679
REMARK  265  A    between atoms: _678  and  _681
REMARK  266  A    between atoms: _681  and  _682
REMARK  267  A    between atoms: _685  and  _687
REMARK  268  A    between atoms: _687  and  _688
REMARK  269  A    between atoms: _687  and  _690
REMARK  270  A    between atoms: _690  and  _691
REMARK                            x       y       z     vdW  Elec       q    Type
REMARK                         _______ _______ _______ _____ _____    ______ ____
ROOT
ATOM      1  O   HOH     1      54.880  39.777  15.118  0.00  0.00    +0.000 OA
ENDROOT
TORSDOF 0
REMARK  Name = ../refined-set-2016/4loi/4loi_pocket.pdb
REMARK  270 active torsions:
REMARK  status: ('A' for Active; 'I' for Inactive)
REMARK    1  A    between atoms: _1  and  _3
REMARK    2  A    between atoms: _3  and  _4
REMARK    3  A    between atoms: _6  and  _8
REMARK    4  A    between atoms: _8  and  _9
REMARK    5  A    between atoms: _8  and  _11
REMARK    6  A    between atoms: _11  and  _12
REMARK    7  A    between atoms: _15  and  _17
REMARK    8  A    between atoms: _17  and  _18
REMARK    9  A    between atoms: _21  and  _23
REMARK   10  A    between atoms: _23  and  _24
REMARK   11  A    between atoms: _23  and  _26
REMARK   12  A    between atoms: _26  and  _27
REMARK   13  A    between atoms: _37  and  _39
REMARK   14  A    between atoms: _39  and  _40
REMARK   15  A    between atoms: _39  and  _42
REMARK   16  A    between atoms: _42  and  _43
REMARK   17  A    between atoms: _45  and  _47
REMARK   18  A    between atoms: _47  and  _48
REMARK   19  A    between atoms: _47  and  _50
REMARK   20  A    between atoms: _50  and  _51
REMARK   21  A    between atoms: _56  and  _57
REMARK   22  A    between atoms: _59  and  _61
REMARK   23  A    between atoms: _61  and  _62
REMARK   24  A    between atoms: _61  and  _64
REMARK   25  A    between atoms: _64  and  _65
REMARK   26  A    between atoms: _70  and  _71
REMARK   27  A    between atoms: _73  and  _75
REMARK   28  A    between atoms: _75  and  _76
REMARK   29  A    between atoms: _75  and  _78
REMARK   30  A    between atoms: _78  and  _79
REMARK   31  A    between atoms: _82  and  _84
REMARK   32  A    between atoms: _84  and  _85
REMARK   33  A    between atoms: _87  and  _89
REMARK   34  A    between atoms: _89  and  _90
REMARK   35  A    between atoms: _89  and  _92
REMARK   36  A    between atoms: _92  and  _93
REMARK   37  A    between atoms: _98  and  _99
REMARK   38  A    between atoms: _101  and  _103
REMARK   39  A    between atoms: _103  and  _104
REMARK   40  A    between atoms: _103  and  _106
REMARK   41  A    between atoms: _106  and  _107
REMARK   42  A    between atoms: _110  and  _112
REMARK   43  A    between atoms: _112  and  _113
REMARK   44  A    between atoms: _112  and  _115
REMARK   45  A    between atoms: _115  and  _116
REMARK   46  A    between atoms: _116  and  _117
REMARK   47  A    between atoms: _117  and  _118
REMARK   48  A    between atoms: _127  and  _129
REMARK   49  A    between atoms: _129  and  _130
REMARK   50  A    between atoms: _129  and  _132
REMARK   51  A    between atoms: _132  and  _133
REMARK   52  A    between atoms: _136  and  _138
REMARK   53  A    between atoms: _138  and  _139
REMARK   54  A    between atoms: _138  and  _141
REMARK   55  A    between atoms: _141  and  _142
REMARK   56  A    between atoms: _145  and  _147
REMARK   57  A    between atoms: _147  and  _148
REMARK   58  A    between atoms: _147  and  _150
REMARK   59  A    between atoms: _150  and  _151
REMARK   60  A    between atoms: _151  and  _152
REMARK   61  A    between atoms: _157  and  _159
REMARK   62  A    between atoms: _159  and  _160
REMARK   63  A    between atoms: _159  and  _162
REMARK   64  A    between atoms: _162  and  _163
REMARK   65  A    between atoms: _168  and  _170
REMARK   66  A    between atoms: _170  and  _171
REMARK   67  A    between atoms: _174  and  _176
REMARK   68  A    between atoms: _176  and  _177
REMARK   69  A    between atoms: _179  and  _181
REMARK   70  A    between atoms: _181  and  _182
REMARK   71  A    between atoms: _181  and  _184
REMARK   72  A    between atoms: _184  and  _185
REMARK   73  A    between atoms: _188  and  _190
REMARK   74  A    between atoms: _190  and  _191
REMARK   75  A    between atoms: _190  and  _193
REMARK   76  A    between atoms: _193  and  _194
REMARK   77  A    between atoms: _194  and  _195
REMARK   78  A    between atoms: _195  and  _196
REMARK   79  A    between atoms: _205  and  _207
REMARK   80  A    between atoms: _207  and  _208
REMARK   81  A    between atoms: _207  and  _210
REMARK   82  A    between atoms: _213  and  _215
REMARK   83  A    between atoms: _215  and  _216
REMARK   84  A    between atoms: _215  and  _218
REMARK   85  A    between atoms: _218  and  _219
REMARK   86  A    between atoms: _224  and  _225
REMARK   87  A    between atoms: _227  and  _229
REMARK   88  A    between atoms: _229  and  _230
REMARK   89  A    between atoms: _229  and  _232
REMARK   90  A    between atoms: _232  and  _233
REMARK   91  A    between atoms: _235  and  _237
REMARK   92  A    between atoms: _237  and  _238
REMARK   93  A    between atoms: _237  and  _240
REMARK   94  A    between atoms: _240  and  _241
REMARK   95  A    between atoms: _246  and  _248
REMARK   96  A    between atoms: _248  and  _249
REMARK   97  A    between atoms: _248  and  _251
REMARK   98  A    between atoms: _251  and  _252
REMARK   99  A    between atoms: _252  and  _253
REMARK  100  A    between atoms: _256  and  _258
REMARK  101  A    between atoms: _258  and  _259
REMARK  102  A    between atoms: _258  and  _261
REMARK  103  A    between atoms: _261  and  _262
REMARK  104  A    between atoms: _267  and  _268
REMARK  105  A    between atoms: _270  and  _272
REMARK  106  A    between atoms: _272  and  _273
REMARK  107  A    between atoms: _276  and  _278
REMARK  108  A    between atoms: _278  and  _279
REMARK  109  A    between atoms: _278  and  _281
REMARK  110  A    between atoms: _281  and  _282
REMARK  111  A    between atoms: _286  and  _287
REMARK  112  A    between atoms: _292  and  _294
REMARK  113  A    between atoms: _294  and  _295
REMARK  114  A    between atoms: _294  and  _297
REMARK  115  A    between atoms: _297  and  _298
REMARK  116  A    between atoms: _301  and  _303
REMARK  117  A    between atoms: _303  and  _304
REMARK  118  A    between atoms: _303  and  _306
REMARK  119  A    between atoms: _306  and  _307
REMARK  120  A    between atoms: _307  and  _308
REMARK  121  A    between atoms: _313  and  _315
REMARK  122  A    between atoms: _315  and  _316
REMARK  123  A    between atoms: _315  and  _318
REMARK  124  A    between atoms: _318  and  _319
REMARK  125  A    between atoms: _322  and  _324
REMARK  126  A    between atoms: _324  and  _325
REMARK  127  A    between atoms: _324  and  _327
REMARK  128  A    between atoms: _327  and  _328
REMARK  129  A    between atoms: _331  and  _333
REMARK  130  A    between atoms: _333  and  _334
REMARK  131  A    between atoms: _333  and  _336
REMARK  132  A    between atoms: _336  and  _337
REMARK  133  A    between atoms: _343  and  _345
REMARK  134  A    between atoms: _345  and  _346
REMARK  135  A    between atoms: _348  and  _350
REMARK  136  A    between atoms: _350  and  _351
REMARK  137  A    between atoms: _350  and  _353
REMARK  138  A    between atoms: _353  and  _354
REMARK  139  A    between atoms: _357  and  _359
REMARK  140  A    between atoms: _359  and  _360
REMARK  141  A    between atoms: _363  and  _365
REMARK  142  A    between atoms: _365  and  _366
REMARK  143  A    between atoms: _365  and  _368
REMARK  144  A    between atoms: _368  and  _369
REMARK  145  A    between atoms: _379  and  _381
REMARK  146  A    between atoms: _381  and  _382
REMARK  147  A    between atoms: _381  and  _384
REMARK  148  A    between atoms: _384  and  _385
REMARK  149  A    between atoms: _387  and  _389
REMARK  150  A    between atoms: _389  and  _390
REMARK  151  A    between atoms: _389  and  _392
REMARK  152  A    between atoms: _392  and  _393
REMARK  153  A    between atoms: _398  and  _399
REMARK  154  A    between atoms: _401  and  _403
REMARK  155  A    between atoms: _403  and  _404
REMARK  156  A    between atoms: _403  and  _406
REMARK  157  A    between atoms: _406  and  _407
REMARK  158  A    between atoms: _412  and  _413
REMARK  159  A    between atoms: _415  and  _417
REMARK  160  A    between atoms: _417  and  _418
REMARK  161  A    between atoms: _417  and  _420
REMARK  162  A    between atoms: _420  and  _421
REMARK  163  A    between atoms: _424  and  _426
REMARK  164  A    between atoms: _426  and  _427
REMARK  165  A    between atoms: _429  and  _431
REMARK  166  A    between atoms: _431  and  _432
REMARK  167  A    between atoms: _431  and  _434
REMARK  168  A    between atoms: _434  and  _435
REMARK  169  A    between atoms: _440  and  _441
REMARK  170  A    between atoms: _443  and  _445
REMARK  171  A    between atoms: _445  and  _446
REMARK  172  A    between atoms: _445  and  _448
REMARK  173  A    between atoms: _448  and  _449
REMARK  174  A    between atoms: _452  and  _454
REMARK  175  A    between atoms: _454  and  _455
REMARK  176  A    between atoms: _454  and  _457
REMARK  177  A    between atoms: _457  and  _458
REMARK  178  A    between atoms: _458  and  _459
REMARK  179  A    between atoms: _459  and  _460
REMARK  180  A    between atoms: _469  and  _471
REMARK  181  A    between atoms: _471  and  _472
REMARK  182  A    between atoms: _471  and  _474
REMARK  183  A    between atoms: _474  and  _475
REMARK  184  A    between atoms: _478  and  _480
REMARK  185  A    between atoms: _480  and  _481
REMARK  186  A    between atoms: _480  and  _483
REMARK  187  A    between atoms: _483  and  _484
REMARK  188  A    between atoms: _487  and  _489
REMARK  189  A    between atoms: _489  and  _490
REMARK  190  A    between atoms: _489  and  _492
REMARK  191  A    between atoms: _492  and  _493
REMARK  192  A    between atoms: _496  and  _498
REMARK  193  A    between atoms: _498  and  _499
REMARK  194  A    between atoms: _498  and  _501
REMARK  195  A    between atoms: _501  and  _502
REMARK  196  A    between atoms: _505  and  _507
REMARK  197  A    between atoms: _507  and  _508
REMARK  198  A    between atoms: _507  and  _510
REMARK  199  A    between atoms: _510  and  _511
REMARK  200  A    between atoms: _511  and  _512
REMARK  201  A    between atoms: _517  and  _519
REMARK  202  A    between atoms: _519  and  _520
REMARK  203  A    between atoms: _519  and  _522
REMARK  204  A    between atoms: _522  and  _523
REMARK  205  A    between atoms: _528  and  _530
REMARK  206  A    between atoms: _530  and  _531
REMARK  207  A    between atoms: _534  and  _536
REMARK  208  A    between atoms: _536  and  _537
REMARK  209  A    between atoms: _536  and  _539
REMARK  210  A    between atoms: _539  and  _540
REMARK  211  A    between atoms: _543  and  _545
REMARK  212  A    between atoms: _545  and  _546
REMARK  213  A    between atoms: _545  and  _548
REMARK  214  A    between atoms: _548  and  _549
REMARK  215  A    between atoms: _549  and  _550
REMARK  216  A    between atoms: _550  and  _551
REMARK  217  A    between atoms: _560  and  _562
REMARK  218  A    between atoms: _562  and  _563
REMARK  219  A    between atoms: _562  and  _565
REMARK  220  A    between atoms: _568  and  _570
REMARK  221  A    between atoms: _570  and  _571
REMARK  222  A    between atoms: _570  and  _573
REMARK  223  A    between atoms: _573  and  _574
REMARK  224  A    between atoms: _579  and  _580
REMARK  225  A    between atoms: _582  and  _584
REMARK  226  A    between atoms: _584  and  _585
REMARK  227  A    between atoms: _584  and  _587
REMARK  228  A    between atoms: _587  and  _588
REMARK  229  A    between atoms: _590  and  _592
REMARK  230  A    between atoms: _592  and  _593
REMARK  231  A    between atoms: _592  and  _595
REMARK  232  A    between atoms: _595  and  _596
REMARK  233  A    between atoms: _601  and  _603
REMARK  234  A    between atoms: _603  and  _604
REMARK  235  A    between atoms: _603  and  _606
REMARK  236  A    between atoms: _606  and  _607
REMARK  237  A    between atoms: _609  and  _611
REMARK  238  A    between atoms: _611  and  _612
REMARK  239  A    between atoms: _611  and  _614
REMARK  240  A    between atoms: _614  and  _615
REMARK  241  A    between atoms: _615  and  _616
REMARK  242  A    between atoms: _619  and  _621
REMARK  243  A    between atoms: _621  and  _622
REMARK  244  A    between atoms: _621  and  _624
REMARK  245  A    between atoms: _624  and  _625
REMARK  246  A    between atoms: _630  and  _631
REMARK  247  A    between atoms: _633  and  _635
REMARK  248  A    between atoms: _635  and  _636
REMARK  249  A    between atoms: _639  and  _641
REMARK  250  A    between atoms: _641  and  _642
REMARK  251  A    between atoms: _641  and  _644
REMARK  252  A    between atoms: _644  and  _645
REMARK  253  A    between atoms: _649  and  _650
REMARK  254  A    between atoms: _655  and  _657
REMARK  255  A    between atoms: _657  and  _658
REMARK  256  A    between atoms: _657  and  _660
REMARK  257  A    between atoms: _660  and  _661
REMARK  258  A    between atoms: _664  and  _666
REMARK  259  A    between atoms: _666  and  _667
REMARK  260  A    between atoms: _666  and  _669
REMARK  261  A    between atoms: _669  and  _670
REMARK  262  A    between atoms: _670  and  _671
REMARK  263  A    between atoms: _676  and  _678
REMARK  264  A    between atoms: _678  and  _679
REMARK  265  A    between atoms: _678  and  _681
REMARK  266  A    between atoms: _681  and  _682
REMARK  267  A    between atoms: _685  and  _687
REMARK  268  A    between atoms: _687  and  _688
REMARK  269  A    between atoms: _687  and  _690
REMARK  270  A    between atoms: _690  and  _691
REMARK                            x       y       z     vdW  Elec       q    Type
REMARK                         _______ _______ _______ _____ _____    ______ ____
ROOT
ATOM      1  O   HOH     1      52.808  29.959  14.581  0.00  0.00    +0.000 OA
ENDROOT
TORSDOF 0
REMARK  Name = ../refined-set-2016/4loi/4loi_pocket.pdb
REMARK  270 active torsions:
REMARK  status: ('A' for Active; 'I' for Inactive)
REMARK    1  A    between atoms: _1  and  _3
REMARK    2  A    between atoms: _3  and  _4
REMARK    3  A    between atoms: _6  and  _8
REMARK    4  A    between atoms: _8  and  _9
REMARK    5  A    between atoms: _8  and  _11
REMARK    6  A    between atoms: _11  and  _12
REMARK    7  A    between atoms: _15  and  _17
REMARK    8  A    between atoms: _17  and  _18
REMARK    9  A    between atoms: _21  and  _23
REMARK   10  A    between atoms: _23  and  _24
REMARK   11  A    between atoms: _23  and  _26
REMARK   12  A    between atoms: _26  and  _27
REMARK   13  A    between atoms: _37  and  _39
REMARK   14  A    between atoms: _39  and  _40
REMARK   15  A    between atoms: _39  and  _42
REMARK   16  A    between atoms: _42  and  _43
REMARK   17  A    between atoms: _45  and  _47
REMARK   18  A    between atoms: _47  and  _48
REMARK   19  A    between atoms: _47  and  _50
REMARK   20  A    between atoms: _50  and  _51
REMARK   21  A    between atoms: _56  and  _57
REMARK   22  A    between atoms: _59  and  _61
REMARK   23  A    between atoms: _61  and  _62
REMARK   24  A    between atoms: _61  and  _64
REMARK   25  A    between atoms: _64  and  _65
REMARK   26  A    between atoms: _70  and  _71
REMARK   27  A    between atoms: _73  and  _75
REMARK   28  A    between atoms: _75  and  _76
REMARK   29  A    between atoms: _75  and  _78
REMARK   30  A    between atoms: _78  and  _79
REMARK   31  A    between atoms: _82  and  _84
REMARK   32  A    between atoms: _84  and  _85
REMARK   33  A    between atoms: _87  and  _89
REMARK   34  A    between atoms: _89  and  _90
REMARK   35  A    between atoms: _89  and  _92
REMARK   36  A    between atoms: _92  and  _93
REMARK   37  A    between atoms: _98  and  _99
REMARK   38  A    between atoms: _101  and  _103
REMARK   39  A    between atoms: _103  and  _104
REMARK   40  A    between atoms: _103  and  _106
REMARK   41  A    between atoms: _106  and  _107
REMARK   42  A    between atoms: _110  and  _112
REMARK   43  A    between atoms: _112  and  _113
REMARK   44  A    between atoms: _112  and  _115
REMARK   45  A    between atoms: _115  and  _116
REMARK   46  A    between atoms: _116  and  _117
REMARK   47  A    between atoms: _117  and  _118
REMARK   48  A    between atoms: _127  and  _129
REMARK   49  A    between atoms: _129  and  _130
REMARK   50  A    between atoms: _129  and  _132
REMARK   51  A    between atoms: _132  and  _133
REMARK   52  A    between atoms: _136  and  _138
REMARK   53  A    between atoms: _138  and  _139
REMARK   54  A    between atoms: _138  and  _141
REMARK   55  A    between atoms: _141  and  _142
REMARK   56  A    between atoms: _145  and  _147
REMARK   57  A    between atoms: _147  and  _148
REMARK   58  A    between atoms: _147  and  _150
REMARK   59  A    between atoms: _150  and  _151
REMARK   60  A    between atoms: _151  and  _152
REMARK   61  A    between atoms: _157  and  _159
REMARK   62  A    between atoms: _159  and  _160
REMARK   63  A    between atoms: _159  and  _162
REMARK   64  A    between atoms: _162  and  _163
REMARK   65  A    between atoms: _168  and  _170
REMARK   66  A    between atoms: _170  and  _171
REMARK   67  A    between atoms: _174  and  _176
REMARK   68  A    between atoms: _176  and  _177
REMARK   69  A    between atoms: _179  and  _181
REMARK   70  A    between atoms: _181  and  _182
REMARK   71  A    between atoms: _181  and  _184
REMARK   72  A    between atoms: _184  and  _185
REMARK   73  A    between atoms: _188  and  _190
REMARK   74  A    between atoms: _190  and  _191
REMARK   75  A    between atoms: _190  and  _193
REMARK   76  A    between atoms: _193  and  _194
REMARK   77  A    between atoms: _194  and  _195
REMARK   78  A    between atoms: _195  and  _196
REMARK   79  A    between atoms: _205  and  _207
REMARK   80  A    between atoms: _207  and  _208
REMARK   81  A    between atoms: _207  and  _210
REMARK   82  A    between atoms: _213  and  _215
REMARK   83  A    between atoms: _215  and  _216
REMARK   84  A    between atoms: _215  and  _218
REMARK   85  A    between atoms: _218  and  _219
REMARK   86  A    between atoms: _224  and  _225
REMARK   87  A    between atoms: _227  and  _229
REMARK   88  A    between atoms: _229  and  _230
REMARK   89  A    between atoms: _229  and  _232
REMARK   90  A    between atoms: _232  and  _233
REMARK   91  A    between atoms: _235  and  _237
REMARK   92  A    between atoms: _237  and  _238
REMARK   93  A    between atoms: _237  and  _240
REMARK   94  A    between atoms: _240  and  _241
REMARK   95  A    between atoms: _246  and  _248
REMARK   96  A    between atoms: _248  and  _249
REMARK   97  A    between atoms: _248  and  _251
REMARK   98  A    between atoms: _251  and  _252
REMARK   99  A    between atoms: _252  and  _253
REMARK  100  A    between atoms: _256  and  _258
REMARK  101  A    between atoms: _258  and  _259
REMARK  102  A    between atoms: _258  and  _261
REMARK  103  A    between atoms: _261  and  _262
REMARK  104  A    between atoms: _267  and  _268
REMARK  105  A    between atoms: _270  and  _272
REMARK  106  A    between atoms: _272  and  _273
REMARK  107  A    between atoms: _276  and  _278
REMARK  108  A    between atoms: _278  and  _279
REMARK  109  A    between atoms: _278  and  _281
REMARK  110  A    between atoms: _281  and  _282
REMARK  111  A    between atoms: _286  and  _287
REMARK  112  A    between atoms: _292  and  _294
REMARK  113  A    between atoms: _294  and  _295
REMARK  114  A    between atoms: _294  and  _297
REMARK  115  A    between atoms: _297  and  _298
REMARK  116  A    between atoms: _301  and  _303
REMARK  117  A    between atoms: _303  and  _304
REMARK  118  A    between atoms: _303  and  _306
REMARK  119  A    between atoms: _306  and  _307
REMARK  120  A    between atoms: _307  and  _308
REMARK  121  A    between atoms: _313  and  _315
REMARK  122  A    between atoms: _315  and  _316
REMARK  123  A    between atoms: _315  and  _318
REMARK  124  A    between atoms: _318  and  _319
REMARK  125  A    between atoms: _322  and  _324
REMARK  126  A    between atoms: _324  and  _325
REMARK  127  A    between atoms: _324  and  _327
REMARK  128  A    between atoms: _327  and  _328
REMARK  129  A    between atoms: _331  and  _333
REMARK  130  A    between atoms: _333  and  _334
REMARK  131  A    between atoms: _333  and  _336
REMARK  132  A    between atoms: _336  and  _337
REMARK  133  A    between atoms: _343  and  _345
REMARK  134  A    between atoms: _345  and  _346
REMARK  135  A    between atoms: _348  and  _350
REMARK  136  A    between atoms: _350  and  _351
REMARK  137  A    between atoms: _350  and  _353
REMARK  138  A    between atoms: _353  and  _354
REMARK  139  A    between atoms: _357  and  _359
REMARK  140  A    between atoms: _359  and  _360
REMARK  141  A    between atoms: _363  and  _365
REMARK  142  A    between atoms: _365  and  _366
REMARK  143  A    between atoms: _365  and  _368
REMARK  144  A    between atoms: _368  and  _369
REMARK  145  A    between atoms: _379  and  _381
REMARK  146  A    between atoms: _381  and  _382
REMARK  147  A    between atoms: _381  and  _384
REMARK  148  A    between atoms: _384  and  _385
REMARK  149  A    between atoms: _387  and  _389
REMARK  150  A    between atoms: _389  and  _390
REMARK  151  A    between atoms: _389  and  _392
REMARK  152  A    between atoms: _392  and  _393
REMARK  153  A    between atoms: _398  and  _399
REMARK  154  A    between atoms: _401  and  _403
REMARK  155  A    between atoms: _403  and  _404
REMARK  156  A    between atoms: _403  and  _406
REMARK  157  A    between atoms: _406  and  _407
REMARK  158  A    between atoms: _412  and  _413
REMARK  159  A    between atoms: _415  and  _417
REMARK  160  A    between atoms: _417  and  _418
REMARK  161  A    between atoms: _417  and  _420
REMARK  162  A    between atoms: _420  and  _421
REMARK  163  A    between atoms: _424  and  _426
REMARK  164  A    between atoms: _426  and  _427
REMARK  165  A    between atoms: _429  and  _431
REMARK  166  A    between atoms: _431  and  _432
REMARK  167  A    between atoms: _431  and  _434
REMARK  168  A    between atoms: _434  and  _435
REMARK  169  A    between atoms: _440  and  _441
REMARK  170  A    between atoms: _443  and  _445
REMARK  171  A    between atoms: _445  and  _446
REMARK  172  A    between atoms: _445  and  _448
REMARK  173  A    between atoms: _448  and  _449
REMARK  174  A    between atoms: _452  and  _454
REMARK  175  A    between atoms: _454  and  _455
REMARK  176  A    between atoms: _454  and  _457
REMARK  177  A    between atoms: _457  and  _458
REMARK  178  A    between atoms: _458  and  _459
REMARK  179  A    between atoms: _459  and  _460
REMARK  180  A    between atoms: _469  and  _471
REMARK  181  A    between atoms: _471  and  _472
REMARK  182  A    between atoms: _471  and  _474
REMARK  183  A    between atoms: _474  and  _475
REMARK  184  A    between atoms: _478  and  _480
REMARK  185  A    between atoms: _480  and  _481
REMARK  186  A    between atoms: _480  and  _483
REMARK  187  A    between atoms: _483  and  _484
REMARK  188  A    between atoms: _487  and  _489
REMARK  189  A    between atoms: _489  and  _490
REMARK  190  A    between atoms: _489  and  _492
REMARK  191  A    between atoms: _492  and  _493
REMARK  192  A    between atoms: _496  and  _498
REMARK  193  A    between atoms: _498  and  _499
REMARK  194  A    between atoms: _498  and  _501
REMARK  195  A    between atoms: _501  and  _502
REMARK  196  A    between atoms: _505  and  _507
REMARK  197  A    between atoms: _507  and  _508
REMARK  198  A    between atoms: _507  and  _510
REMARK  199  A    between atoms: _510  and  _511
REMARK  200  A    between atoms: _511  and  _512
REMARK  201  A    between atoms: _517  and  _519
REMARK  202  A    between atoms: _519  and  _520
REMARK  203  A    between atoms: _519  and  _522
REMARK  204  A    between atoms: _522  and  _523
REMARK  205  A    between atoms: _528  and  _530
REMARK  206  A    between atoms: _530  and  _531
REMARK  207  A    between atoms: _534  and  _536
REMARK  208  A    between atoms: _536  and  _537
REMARK  209  A    between atoms: _536  and  _539
REMARK  210  A    between atoms: _539  and  _540
REMARK  211  A    between atoms: _543  and  _545
REMARK  212  A    between atoms: _545  and  _546
REMARK  213  A    between atoms: _545  and  _548
REMARK  214  A    between atoms: _548  and  _549
REMARK  215  A    between atoms: _549  and  _550
REMARK  216  A    between atoms: _550  and  _551
REMARK  217  A    between atoms: _560  and  _562
REMARK  218  A    between atoms: _562  and  _563
REMARK  219  A    between atoms: _562  and  _565
REMARK  220  A    between atoms: _568  and  _570
REMARK  221  A    between atoms: _570  and  _571
REMARK  222  A    between atoms: _570  and  _573
REMARK  223  A    between atoms: _573  and  _574
REMARK  224  A    between atoms: _579  and  _580
REMARK  225  A    between atoms: _582  and  _584
REMARK  226  A    between atoms: _584  and  _585
REMARK  227  A    between atoms: _584  and  _587
REMARK  228  A    between atoms: _587  and  _588
REMARK  229  A    between atoms: _590  and  _592
REMARK  230  A    between atoms: _592  and  _593
REMARK  231  A    between atoms: _592  and  _595
REMARK  232  A    between atoms: _595  and  _596
REMARK  233  A    between atoms: _601  and  _603
REMARK  234  A    between atoms: _603  and  _604
REMARK  235  A    between atoms: _603  and  _606
REMARK  236  A    between atoms: _606  and  _607
REMARK  237  A    between atoms: _609  and  _611
REMARK  238  A    between atoms: _611  and  _612
REMARK  239  A    between atoms: _611  and  _614
REMARK  240  A    between atoms: _614  and  _615
REMARK  241  A    between atoms: _615  and  _616
REMARK  242  A    between atoms: _619  and  _621
REMARK  243  A    between atoms: _621  and  _622
REMARK  244  A    between atoms: _621  and  _624
REMARK  245  A    between atoms: _624  and  _625
REMARK  246  A    between atoms: _630  and  _631
REMARK  247  A    between atoms: _633  and  _635
REMARK  248  A    between atoms: _635  and  _636
REMARK  249  A    between atoms: _639  and  _641
REMARK  250  A    between atoms: _641  and  _642
REMARK  251  A    between atoms: _641  and  _644
REMARK  252  A    between atoms: _644  and  _645
REMARK  253  A    between atoms: _649  and  _650
REMARK  254  A    between atoms: _655  and  _657
REMARK  255  A    between atoms: _657  and  _658
REMARK  256  A    between atoms: _657  and  _660
REMARK  257  A    between atoms: _660  and  _661
REMARK  258  A    between atoms: _664  and  _666
REMARK  259  A    between atoms: _666  and  _667
REMARK  260  A    between atoms: _666  and  _669
REMARK  261  A    between atoms: _669  and  _670
REMARK  262  A    between atoms: _670  and  _671
REMARK  263  A    between atoms: _676  and  _678
REMARK  264  A    between atoms: _678  and  _679
REMARK  265  A    between atoms: _678  and  _681
REMARK  266  A    between atoms: _681  and  _682
REMARK  267  A    between atoms: _685  and  _687
REMARK  268  A    between atoms: _687  and  _688
REMARK  269  A    between atoms: _687  and  _690
REMARK  270  A    between atoms: _690  and  _691
REMARK                            x       y       z     vdW  Elec       q    Type
REMARK                         _______ _______ _______ _____ _____    ______ ____
ROOT
ATOM      1  O   HOH     1      40.704  29.780  22.272  0.00  0.00    +0.000 OA
ENDROOT
TORSDOF 0
REMARK  Name = ../refined-set-2016/4loi/4loi_pocket.pdb
REMARK  270 active torsions:
REMARK  status: ('A' for Active; 'I' for Inactive)
REMARK    1  A    between atoms: _1  and  _3
REMARK    2  A    between atoms: _3  and  _4
REMARK    3  A    between atoms: _6  and  _8
REMARK    4  A    between atoms: _8  and  _9
REMARK    5  A    between atoms: _8  and  _11
REMARK    6  A    between atoms: _11  and  _12
REMARK    7  A    between atoms: _15  and  _17
REMARK    8  A    between atoms: _17  and  _18
REMARK    9  A    between atoms: _21  and  _23
REMARK   10  A    between atoms: _23  and  _24
REMARK   11  A    between atoms: _23  and  _26
REMARK   12  A    between atoms: _26  and  _27
REMARK   13  A    between atoms: _37  and  _39
REMARK   14  A    between atoms: _39  and  _40
REMARK   15  A    between atoms: _39  and  _42
REMARK   16  A    between atoms: _42  and  _43
REMARK   17  A    between atoms: _45  and  _47
REMARK   18  A    between atoms: _47  and  _48
REMARK   19  A    between atoms: _47  and  _50
REMARK   20  A    between atoms: _50  and  _51
REMARK   21  A    between atoms: _56  and  _57
REMARK   22  A    between atoms: _59  and  _61
REMARK   23  A    between atoms: _61  and  _62
REMARK   24  A    between atoms: _61  and  _64
REMARK   25  A    between atoms: _64  and  _65
REMARK   26  A    between atoms: _70  and  _71
REMARK   27  A    between atoms: _73  and  _75
REMARK   28  A    between atoms: _75  and  _76
REMARK   29  A    between atoms: _75  and  _78
REMARK   30  A    between atoms: _78  and  _79
REMARK   31  A    between atoms: _82  and  _84
REMARK   32  A    between atoms: _84  and  _85
REMARK   33  A    between atoms: _87  and  _89
REMARK   34  A    between atoms: _89  and  _90
REMARK   35  A    between atoms: _89  and  _92
REMARK   36  A    between atoms: _92  and  _93
REMARK   37  A    between atoms: _98  and  _99
REMARK   38  A    between atoms: _101  and  _103
REMARK   39  A    between atoms: _103  and  _104
REMARK   40  A    between atoms: _103  and  _106
REMARK   41  A    between atoms: _106  and  _107
REMARK   42  A    between atoms: _110  and  _112
REMARK   43  A    between atoms: _112  and  _113
REMARK   44  A    between atoms: _112  and  _115
REMARK   45  A    between atoms: _115  and  _116
REMARK   46  A    between atoms: _116  and  _117
REMARK   47  A    between atoms: _117  and  _118
REMARK   48  A    between atoms: _127  and  _129
REMARK   49  A    between atoms: _129  and  _130
REMARK   50  A    between atoms: _129  and  _132
REMARK   51  A    between atoms: _132  and  _133
REMARK   52  A    between atoms: _136  and  _138
REMARK   53  A    between atoms: _138  and  _139
REMARK   54  A    between atoms: _138  and  _141
REMARK   55  A    between atoms: _141  and  _142
REMARK   56  A    between atoms: _145  and  _147
REMARK   57  A    between atoms: _147  and  _148
REMARK   58  A    between atoms: _147  and  _150
REMARK   59  A    between atoms: _150  and  _151
REMARK   60  A    between atoms: _151  and  _152
REMARK   61  A    between atoms: _157  and  _159
REMARK   62  A    between atoms: _159  and  _160
REMARK   63  A    between atoms: _159  and  _162
REMARK   64  A    between atoms: _162  and  _163
REMARK   65  A    between atoms: _168  and  _170
REMARK   66  A    between atoms: _170  and  _171
REMARK   67  A    between atoms: _174  and  _176
REMARK   68  A    between atoms: _176  and  _177
REMARK   69  A    between atoms: _179  and  _181
REMARK   70  A    between atoms: _181  and  _182
REMARK   71  A    between atoms: _181  and  _184
REMARK   72  A    between atoms: _184  and  _185
REMARK   73  A    between atoms: _188  and  _190
REMARK   74  A    between atoms: _190  and  _191
REMARK   75  A    between atoms: _190  and  _193
REMARK   76  A    between atoms: _193  and  _194
REMARK   77  A    between atoms: _194  and  _195
REMARK   78  A    between atoms: _195  and  _196
REMARK   79  A    between atoms: _205  and  _207
REMARK   80  A    between atoms: _207  and  _208
REMARK   81  A    between atoms: _207  and  _210
REMARK   82  A    between atoms: _213  and  _215
REMARK   83  A    between atoms: _215  and  _216
REMARK   84  A    between atoms: _215  and  _218
REMARK   85  A    between atoms: _218  and  _219
REMARK   86  A    between atoms: _224  and  _225
REMARK   87  A    between atoms: _227  and  _229
REMARK   88  A    between atoms: _229  and  _230
REMARK   89  A    between atoms: _229  and  _232
REMARK   90  A    between atoms: _232  and  _233
REMARK   91  A    between atoms: _235  and  _237
REMARK   92  A    between atoms: _237  and  _238
REMARK   93  A    between atoms: _237  and  _240
REMARK   94  A    between atoms: _240  and  _241
REMARK   95  A    between atoms: _246  and  _248
REMARK   96  A    between atoms: _248  and  _249
REMARK   97  A    between atoms: _248  and  _251
REMARK   98  A    between atoms: _251  and  _252
REMARK   99  A    between atoms: _252  and  _253
REMARK  100  A    between atoms: _256  and  _258
REMARK  101  A    between atoms: _258  and  _259
REMARK  102  A    between atoms: _258  and  _261
REMARK  103  A    between atoms: _261  and  _262
REMARK  104  A    between atoms: _267  and  _268
REMARK  105  A    between atoms: _270  and  _272
REMARK  106  A    between atoms: _272  and  _273
REMARK  107  A    between atoms: _276  and  _278
REMARK  108  A    between atoms: _278  and  _279
REMARK  109  A    between atoms: _278  and  _281
REMARK  110  A    between atoms: _281  and  _282
REMARK  111  A    between atoms: _286  and  _287
REMARK  112  A    between atoms: _292  and  _294
REMARK  113  A    between atoms: _294  and  _295
REMARK  114  A    between atoms: _294  and  _297
REMARK  115  A    between atoms: _297  and  _298
REMARK  116  A    between atoms: _301  and  _303
REMARK  117  A    between atoms: _303  and  _304
REMARK  118  A    between atoms: _303  and  _306
REMARK  119  A    between atoms: _306  and  _307
REMARK  120  A    between atoms: _307  and  _308
REMARK  121  A    between atoms: _313  and  _315
REMARK  122  A    between atoms: _315  and  _316
REMARK  123  A    between atoms: _315  and  _318
REMARK  124  A    between atoms: _318  and  _319
REMARK  125  A    between atoms: _322  and  _324
REMARK  126  A    between atoms: _324  and  _325
REMARK  127  A    between atoms: _324  and  _327
REMARK  128  A    between atoms: _327  and  _328
REMARK  129  A    between atoms: _331  and  _333
REMARK  130  A    between atoms: _333  and  _334
REMARK  131  A    between atoms: _333  and  _336
REMARK  132  A    between atoms: _336  and  _337
REMARK  133  A    between atoms: _343  and  _345
REMARK  134  A    between atoms: _345  and  _346
REMARK  135  A    between atoms: _348  and  _350
REMARK  136  A    between atoms: _350  and  _351
REMARK  137  A    between atoms: _350  and  _353
REMARK  138  A    between atoms: _353  and  _354
REMARK  139  A    between atoms: _357  and  _359
REMARK  140  A    between atoms: _359  and  _360
REMARK  141  A    between atoms: _363  and  _365
REMARK  142  A    between atoms: _365  and  _366
REMARK  143  A    between atoms: _365  and  _368
REMARK  144  A    between atoms: _368  and  _369
REMARK  145  A    between atoms: _379  and  _381
REMARK  146  A    between atoms: _381  and  _382
REMARK  147  A    between atoms: _381  and  _384
REMARK  148  A    between atoms: _384  and  _385
REMARK  149  A    between atoms: _387  and  _389
REMARK  150  A    between atoms: _389  and  _390
REMARK  151  A    between atoms: _389  and  _392
REMARK  152  A    between atoms: _392  and  _393
REMARK  153  A    between atoms: _398  and  _399
REMARK  154  A    between atoms: _401  and  _403
REMARK  155  A    between atoms: _403  and  _404
REMARK  156  A    between atoms: _403  and  _406
REMARK  157  A    between atoms: _406  and  _407
REMARK  158  A    between atoms: _412  and  _413
REMARK  159  A    between atoms: _415  and  _417
REMARK  160  A    between atoms: _417  and  _418
REMARK  161  A    between atoms: _417  and  _420
REMARK  162  A    between atoms: _420  and  _421
REMARK  163  A    between atoms: _424  and  _426
REMARK  164  A    between atoms: _426  and  _427
REMARK  165  A    between atoms: _429  and  _431
REMARK  166  A    between atoms: _431  and  _432
REMARK  167  A    between atoms: _431  and  _434
REMARK  168  A    between atoms: _434  and  _435
REMARK  169  A    between atoms: _440  and  _441
REMARK  170  A    between atoms: _443  and  _445
REMARK  171  A    between atoms: _445  and  _446
REMARK  172  A    between atoms: _445  and  _448
REMARK  173  A    between atoms: _448  and  _449
REMARK  174  A    between atoms: _452  and  _454
REMARK  175  A    between atoms: _454  and  _455
REMARK  176  A    between atoms: _454  and  _457
REMARK  177  A    between atoms: _457  and  _458
REMARK  178  A    between atoms: _458  and  _459
REMARK  179  A    between atoms: _459  and  _460
REMARK  180  A    between atoms: _469  and  _471
REMARK  181  A    between atoms: _471  and  _472
REMARK  182  A    between atoms: _471  and  _474
REMARK  183  A    between atoms: _474  and  _475
REMARK  184  A    between atoms: _478  and  _480
REMARK  185  A    between atoms: _480  and  _481
REMARK  186  A    between atoms: _480  and  _483
REMARK  187  A    between atoms: _483  and  _484
REMARK  188  A    between atoms: _487  and  _489
REMARK  189  A    between atoms: _489  and  _490
REMARK  190  A    between atoms: _489  and  _492
REMARK  191  A    between atoms: _492  and  _493
REMARK  192  A    between atoms: _496  and  _498
REMARK  193  A    between atoms: _498  and  _499
REMARK  194  A    between atoms: _498  and  _501
REMARK  195  A    between atoms: _501  and  _502
REMARK  196  A    between atoms: _505  and  _507
REMARK  197  A    between atoms: _507  and  _508
REMARK  198  A    between atoms: _507  and  _510
REMARK  199  A    between atoms: _510  and  _511
REMARK  200  A    between atoms: _511  and  _512
REMARK  201  A    between atoms: _517  and  _519
REMARK  202  A    between atoms: _519  and  _520
REMARK  203  A    between atoms: _519  and  _522
REMARK  204  A    between atoms: _522  and  _523
REMARK  205  A    between atoms: _528  and  _530
REMARK  206  A    between atoms: _530  and  _531
REMARK  207  A    between atoms: _534  and  _536
REMARK  208  A    between atoms: _536  and  _537
REMARK  209  A    between atoms: _536  and  _539
REMARK  210  A    between atoms: _539  and  _540
REMARK  211  A    between atoms: _543  and  _545
REMARK  212  A    between atoms: _545  and  _546
REMARK  213  A    between atoms: _545  and  _548
REMARK  214  A    between atoms: _548  and  _549
REMARK  215  A    between atoms: _549  and  _550
REMARK  216  A    between atoms: _550  and  _551
REMARK  217  A    between atoms: _560  and  _562
REMARK  218  A    between atoms: _562  and  _563
REMARK  219  A    between atoms: _562  and  _565
REMARK  220  A    between atoms: _568  and  _570
REMARK  221  A    between atoms: _570  and  _571
REMARK  222  A    between atoms: _570  and  _573
REMARK  223  A    between atoms: _573  and  _574
REMARK  224  A    between atoms: _579  and  _580
REMARK  225  A    between atoms: _582  and  _584
REMARK  226  A    between atoms: _584  and  _585
REMARK  227  A    between atoms: _584  and  _587
REMARK  228  A    between atoms: _587  and  _588
REMARK  229  A    between atoms: _590  and  _592
REMARK  230  A    between atoms: _592  and  _593
REMARK  231  A    between atoms: _592  and  _595
REMARK  232  A    between atoms: _595  and  _596
REMARK  233  A    between atoms: _601  and  _603
REMARK  234  A    between atoms: _603  and  _604
REMARK  235  A    between atoms: _603  and  _606
REMARK  236  A    between atoms: _606  and  _607
REMARK  237  A    between atoms: _609  and  _611
REMARK  238  A    between atoms: _611  and  _612
REMARK  239  A    between atoms: _611  and  _614
REMARK  240  A    between atoms: _614  and  _615
REMARK  241  A    between atoms: _615  and  _616
REMARK  242  A    between atoms: _619  and  _621
REMARK  243  A    between atoms: _621  and  _622
REMARK  244  A    between atoms: _621  and  _624
REMARK  245  A    between atoms: _624  and  _625
REMARK  246  A    between atoms: _630  and  _631
REMARK  247  A    between atoms: _633  and  _635
REMARK  248  A    between atoms: _635  and  _636
REMARK  249  A    between atoms: _639  and  _641
REMARK  250  A    between atoms: _641  and  _642
REMARK  251  A    between atoms: _641  and  _644
REMARK  252  A    between atoms: _644  and  _645
REMARK  253  A    between atoms: _649  and  _650
REMARK  254  A    between atoms: _655  and  _657
REMARK  255  A    between atoms: _657  and  _658
REMARK  256  A    between atoms: _657  and  _660
REMARK  257  A    between atoms: _660  and  _661
REMARK  258  A    between atoms: _664  and  _666
REMARK  259  A    between atoms: _666  and  _667
REMARK  260  A    between atoms: _666  and  _669
REMARK  261  A    between atoms: _669  and  _670
REMARK  262  A    between atoms: _670  and  _671
REMARK  263  A    between atoms: _676  and  _678
REMARK  264  A    between atoms: _678  and  _679
REMARK  265  A    between atoms: _678  and  _681
REMARK  266  A    between atoms: _681  and  _682
REMARK  267  A    between atoms: _685  and  _687
REMARK  268  A    between atoms: _687  and  _688
REMARK  269  A    between atoms: _687  and  _690
REMARK  270  A    between atoms: _690  and  _691
REMARK                            x       y       z     vdW  Elec       q    Type
REMARK                         _______ _______ _______ _____ _____    ______ ____
ROOT
ATOM      1  O   HOH     1      41.588  30.591  24.494  0.00  0.00    +0.000 OA
ENDROOT
TORSDOF 0
REMARK  Name = ../refined-set-2016/4loi/4loi_pocket.pdb
REMARK  270 active torsions:
REMARK  status: ('A' for Active; 'I' for Inactive)
REMARK    1  A    between atoms: _1  and  _3
REMARK    2  A    between atoms: _3  and  _4
REMARK    3  A    between atoms: _6  and  _8
REMARK    4  A    between atoms: _8  and  _9
REMARK    5  A    between atoms: _8  and  _11
REMARK    6  A    between atoms: _11  and  _12
REMARK    7  A    between atoms: _15  and  _17
REMARK    8  A    between atoms: _17  and  _18
REMARK    9  A    between atoms: _21  and  _23
REMARK   10  A    between atoms: _23  and  _24
REMARK   11  A    between atoms: _23  and  _26
REMARK   12  A    between atoms: _26  and  _27
REMARK   13  A    between atoms: _37  and  _39
REMARK   14  A    between atoms: _39  and  _40
REMARK   15  A    between atoms: _39  and  _42
REMARK   16  A    between atoms: _42  and  _43
REMARK   17  A    between atoms: _45  and  _47
REMARK   18  A    between atoms: _47  and  _48
REMARK   19  A    between atoms: _47  and  _50
REMARK   20  A    between atoms: _50  and  _51
REMARK   21  A    between atoms: _56  and  _57
REMARK   22  A    between atoms: _59  and  _61
REMARK   23  A    between atoms: _61  and  _62
REMARK   24  A    between atoms: _61  and  _64
REMARK   25  A    between atoms: _64  and  _65
REMARK   26  A    between atoms: _70  and  _71
REMARK   27  A    between atoms: _73  and  _75
REMARK   28  A    between atoms: _75  and  _76
REMARK   29  A    between atoms: _75  and  _78
REMARK   30  A    between atoms: _78  and  _79
REMARK   31  A    between atoms: _82  and  _84
REMARK   32  A    between atoms: _84  and  _85
REMARK   33  A    between atoms: _87  and  _89
REMARK   34  A    between atoms: _89  and  _90
REMARK   35  A    between atoms: _89  and  _92
REMARK   36  A    between atoms: _92  and  _93
REMARK   37  A    between atoms: _98  and  _99
REMARK   38  A    between atoms: _101  and  _103
REMARK   39  A    between atoms: _103  and  _104
REMARK   40  A    between atoms: _103  and  _106
REMARK   41  A    between atoms: _106  and  _107
REMARK   42  A    between atoms: _110  and  _112
REMARK   43  A    between atoms: _112  and  _113
REMARK   44  A    between atoms: _112  and  _115
REMARK   45  A    between atoms: _115  and  _116
REMARK   46  A    between atoms: _116  and  _117
REMARK   47  A    between atoms: _117  and  _118
REMARK   48  A    between atoms: _127  and  _129
REMARK   49  A    between atoms: _129  and  _130
REMARK   50  A    between atoms: _129  and  _132
REMARK   51  A    between atoms: _132  and  _133
REMARK   52  A    between atoms: _136  and  _138
REMARK   53  A    between atoms: _138  and  _139
REMARK   54  A    between atoms: _138  and  _141
REMARK   55  A    between atoms: _141  and  _142
REMARK   56  A    between atoms: _145  and  _147
REMARK   57  A    between atoms: _147  and  _148
REMARK   58  A    between atoms: _147  and  _150
REMARK   59  A    between atoms: _150  and  _151
REMARK   60  A    between atoms: _151  and  _152
REMARK   61  A    between atoms: _157  and  _159
REMARK   62  A    between atoms: _159  and  _160
REMARK   63  A    between atoms: _159  and  _162
REMARK   64  A    between atoms: _162  and  _163
REMARK   65  A    between atoms: _168  and  _170
REMARK   66  A    between atoms: _170  and  _171
REMARK   67  A    between atoms: _174  and  _176
REMARK   68  A    between atoms: _176  and  _177
REMARK   69  A    between atoms: _179  and  _181
REMARK   70  A    between atoms: _181  and  _182
REMARK   71  A    between atoms: _181  and  _184
REMARK   72  A    between atoms: _184  and  _185
REMARK   73  A    between atoms: _188  and  _190
REMARK   74  A    between atoms: _190  and  _191
REMARK   75  A    between atoms: _190  and  _193
REMARK   76  A    between atoms: _193  and  _194
REMARK   77  A    between atoms: _194  and  _195
REMARK   78  A    between atoms: _195  and  _196
REMARK   79  A    between atoms: _205  and  _207
REMARK   80  A    between atoms: _207  and  _208
REMARK   81  A    between atoms: _207  and  _210
REMARK   82  A    between atoms: _213  and  _215
REMARK   83  A    between atoms: _215  and  _216
REMARK   84  A    between atoms: _215  and  _218
REMARK   85  A    between atoms: _218  and  _219
REMARK   86  A    between atoms: _224  and  _225
REMARK   87  A    between atoms: _227  and  _229
REMARK   88  A    between atoms: _229  and  _230
REMARK   89  A    between atoms: _229  and  _232
REMARK   90  A    between atoms: _232  and  _233
REMARK   91  A    between atoms: _235  and  _237
REMARK   92  A    between atoms: _237  and  _238
REMARK   93  A    between atoms: _237  and  _240
REMARK   94  A    between atoms: _240  and  _241
REMARK   95  A    between atoms: _246  and  _248
REMARK   96  A    between atoms: _248  and  _249
REMARK   97  A    between atoms: _248  and  _251
REMARK   98  A    between atoms: _251  and  _252
REMARK   99  A    between atoms: _252  and  _253
REMARK  100  A    between atoms: _256  and  _258
REMARK  101  A    between atoms: _258  and  _259
REMARK  102  A    between atoms: _258  and  _261
REMARK  103  A    between atoms: _261  and  _262
REMARK  104  A    between atoms: _267  and  _268
REMARK  105  A    between atoms: _270  and  _272
REMARK  106  A    between atoms: _272  and  _273
REMARK  107  A    between atoms: _276  and  _278
REMARK  108  A    between atoms: _278  and  _279
REMARK  109  A    between atoms: _278  and  _281
REMARK  110  A    between atoms: _281  and  _282
REMARK  111  A    between atoms: _286  and  _287
REMARK  112  A    between atoms: _292  and  _294
REMARK  113  A    between atoms: _294  and  _295
REMARK  114  A    between atoms: _294  and  _297
REMARK  115  A    between atoms: _297  and  _298
REMARK  116  A    between atoms: _301  and  _303
REMARK  117  A    between atoms: _303  and  _304
REMARK  118  A    between atoms: _303  and  _306
REMARK  119  A    between atoms: _306  and  _307
REMARK  120  A    between atoms: _307  and  _308
REMARK  121  A    between atoms: _313  and  _315
REMARK  122  A    between atoms: _315  and  _316
REMARK  123  A    between atoms: _315  and  _318
REMARK  124  A    between atoms: _318  and  _319
REMARK  125  A    between atoms: _322  and  _324
REMARK  126  A    between atoms: _324  and  _325
REMARK  127  A    between atoms: _324  and  _327
REMARK  128  A    between atoms: _327  and  _328
REMARK  129  A    between atoms: _331  and  _333
REMARK  130  A    between atoms: _333  and  _334
REMARK  131  A    between atoms: _333  and  _336
REMARK  132  A    between atoms: _336  and  _337
REMARK  133  A    between atoms: _343  and  _345
REMARK  134  A    between atoms: _345  and  _346
REMARK  135  A    between atoms: _348  and  _350
REMARK  136  A    between atoms: _350  and  _351
REMARK  137  A    between atoms: _350  and  _353
REMARK  138  A    between atoms: _353  and  _354
REMARK  139  A    between atoms: _357  and  _359
REMARK  140  A    between atoms: _359  and  _360
REMARK  141  A    between atoms: _363  and  _365
REMARK  142  A    between atoms: _365  and  _366
REMARK  143  A    between atoms: _365  and  _368
REMARK  144  A    between atoms: _368  and  _369
REMARK  145  A    between atoms: _379  and  _381
REMARK  146  A    between atoms: _381  and  _382
REMARK  147  A    between atoms: _381  and  _384
REMARK  148  A    between atoms: _384  and  _385
REMARK  149  A    between atoms: _387  and  _389
REMARK  150  A    between atoms: _389  and  _390
REMARK  151  A    between atoms: _389  and  _392
REMARK  152  A    between atoms: _392  and  _393
REMARK  153  A    between atoms: _398  and  _399
REMARK  154  A    between atoms: _401  and  _403
REMARK  155  A    between atoms: _403  and  _404
REMARK  156  A    between atoms: _403  and  _406
REMARK  157  A    between atoms: _406  and  _407
REMARK  158  A    between atoms: _412  and  _413
REMARK  159  A    between atoms: _415  and  _417
REMARK  160  A    between atoms: _417  and  _418
REMARK  161  A    between atoms: _417  and  _420
REMARK  162  A    between atoms: _420  and  _421
REMARK  163  A    between atoms: _424  and  _426
REMARK  164  A    between atoms: _426  and  _427
REMARK  165  A    between atoms: _429  and  _431
REMARK  166  A    between atoms: _431  and  _432
REMARK  167  A    between atoms: _431  and  _434
REMARK  168  A    between atoms: _434  and  _435
REMARK  169  A    between atoms: _440  and  _441
REMARK  170  A    between atoms: _443  and  _445
REMARK  171  A    between atoms: _445  and  _446
REMARK  172  A    between atoms: _445  and  _448
REMARK  173  A    between atoms: _448  and  _449
REMARK  174  A    between atoms: _452  and  _454
REMARK  175  A    between atoms: _454  and  _455
REMARK  176  A    between atoms: _454  and  _457
REMARK  177  A    between atoms: _457  and  _458
REMARK  178  A    between atoms: _458  and  _459
REMARK  179  A    between atoms: _459  and  _460
REMARK  180  A    between atoms: _469  and  _471
REMARK  181  A    between atoms: _471  and  _472
REMARK  182  A    between atoms: _471  and  _474
REMARK  183  A    between atoms: _474  and  _475
REMARK  184  A    between atoms: _478  and  _480
REMARK  185  A    between atoms: _480  and  _481
REMARK  186  A    between atoms: _480  and  _483
REMARK  187  A    between atoms: _483  and  _484
REMARK  188  A    between atoms: _487  and  _489
REMARK  189  A    between atoms: _489  and  _490
REMARK  190  A    between atoms: _489  and  _492
REMARK  191  A    between atoms: _492  and  _493
REMARK  192  A    between atoms: _496  and  _498
REMARK  193  A    between atoms: _498  and  _499
REMARK  194  A    between atoms: _498  and  _501
REMARK  195  A    between atoms: _501  and  _502
REMARK  196  A    between atoms: _505  and  _507
REMARK  197  A    between atoms: _507  and  _508
REMARK  198  A    between atoms: _507  and  _510
REMARK  199  A    between atoms: _510  and  _511
REMARK  200  A    between atoms: _511  and  _512
REMARK  201  A    between atoms: _517  and  _519
REMARK  202  A    between atoms: _519  and  _520
REMARK  203  A    between atoms: _519  and  _522
REMARK  204  A    between atoms: _522  and  _523
REMARK  205  A    between atoms: _528  and  _530
REMARK  206  A    between atoms: _530  and  _531
REMARK  207  A    between atoms: _534  and  _536
REMARK  208  A    between atoms: _536  and  _537
REMARK  209  A    between atoms: _536  and  _539
REMARK  210  A    between atoms: _539  and  _540
REMARK  211  A    between atoms: _543  and  _545
REMARK  212  A    between atoms: _545  and  _546
REMARK  213  A    between atoms: _545  and  _548
REMARK  214  A    between atoms: _548  and  _549
REMARK  215  A    between atoms: _549  and  _550
REMARK  216  A    between atoms: _550  and  _551
REMARK  217  A    between atoms: _560  and  _562
REMARK  218  A    between atoms: _562  and  _563
REMARK  219  A    between atoms: _562  and  _565
REMARK  220  A    between atoms: _568  and  _570
REMARK  221  A    between atoms: _570  and  _571
REMARK  222  A    between atoms: _570  and  _573
REMARK  223  A    between atoms: _573  and  _574
REMARK  224  A    between atoms: _579  and  _580
REMARK  225  A    between atoms: _582  and  _584
REMARK  226  A    between atoms: _584  and  _585
REMARK  227  A    between atoms: _584  and  _587
REMARK  228  A    between atoms: _587  and  _588
REMARK  229  A    between atoms: _590  and  _592
REMARK  230  A    between atoms: _592  and  _593
REMARK  231  A    between atoms: _592  and  _595
REMARK  232  A    between atoms: _595  and  _596
REMARK  233  A    between atoms: _601  and  _603
REMARK  234  A    between atoms: _603  and  _604
REMARK  235  A    between atoms: _603  and  _606
REMARK  236  A    between atoms: _606  and  _607
REMARK  237  A    between atoms: _609  and  _611
REMARK  238  A    between atoms: _611  and  _612
REMARK  239  A    between atoms: _611  and  _614
REMARK  240  A    between atoms: _614  and  _615
REMARK  241  A    between atoms: _615  and  _616
REMARK  242  A    between atoms: _619  and  _621
REMARK  243  A    between atoms: _621  and  _622
REMARK  244  A    between atoms: _621  and  _624
REMARK  245  A    between atoms: _624  and  _625
REMARK  246  A    between atoms: _630  and  _631
REMARK  247  A    between atoms: _633  and  _635
REMARK  248  A    between atoms: _635  and  _636
REMARK  249  A    between atoms: _639  and  _641
REMARK  250  A    between atoms: _641  and  _642
REMARK  251  A    between atoms: _641  and  _644
REMARK  252  A    between atoms: _644  and  _645
REMARK  253  A    between atoms: _649  and  _650
REMARK  254  A    between atoms: _655  and  _657
REMARK  255  A    between atoms: _657  and  _658
REMARK  256  A    between atoms: _657  and  _660
REMARK  257  A    between atoms: _660  and  _661
REMARK  258  A    between atoms: _664  and  _666
REMARK  259  A    between atoms: _666  and  _667
REMARK  260  A    between atoms: _666  and  _669
REMARK  261  A    between atoms: _669  and  _670
REMARK  262  A    between atoms: _670  and  _671
REMARK  263  A    between atoms: _676  and  _678
REMARK  264  A    between atoms: _678  and  _679
REMARK  265  A    between atoms: _678  and  _681
REMARK  266  A    between atoms: _681  and  _682
REMARK  267  A    between atoms: _685  and  _687
REMARK  268  A    between atoms: _687  and  _688
REMARK  269  A    between atoms: _687  and  _690
REMARK  270  A    between atoms: _690  and  _691
REMARK                            x       y       z     vdW  Elec       q    Type
REMARK                         _______ _______ _______ _____ _____    ______ ____
ROOT
ATOM      1  O   HOH     1      37.918  31.788  16.833  0.00  0.00    +0.000 OA
ENDROOT
TORSDOF 0
REMARK  Name = ../refined-set-2016/4loi/4loi_pocket.pdb
REMARK  270 active torsions:
REMARK  status: ('A' for Active; 'I' for Inactive)
REMARK    1  A    between atoms: _1  and  _3
REMARK    2  A    between atoms: _3  and  _4
REMARK    3  A    between atoms: _6  and  _8
REMARK    4  A    between atoms: _8  and  _9
REMARK    5  A    between atoms: _8  and  _11
REMARK    6  A    between atoms: _11  and  _12
REMARK    7  A    between atoms: _15  and  _17
REMARK    8  A    between atoms: _17  and  _18
REMARK    9  A    between atoms: _21  and  _23
REMARK   10  A    between atoms: _23  and  _24
REMARK   11  A    between atoms: _23  and  _26
REMARK   12  A    between atoms: _26  and  _27
REMARK   13  A    between atoms: _37  and  _39
REMARK   14  A    between atoms: _39  and  _40
REMARK   15  A    between atoms: _39  and  _42
REMARK   16  A    between atoms: _42  and  _43
REMARK   17  A    between atoms: _45  and  _47
REMARK   18  A    between atoms: _47  and  _48
REMARK   19  A    between atoms: _47  and  _50
REMARK   20  A    between atoms: _50  and  _51
REMARK   21  A    between atoms: _56  and  _57
REMARK   22  A    between atoms: _59  and  _61
REMARK   23  A    between atoms: _61  and  _62
REMARK   24  A    between atoms: _61  and  _64
REMARK   25  A    between atoms: _64  and  _65
REMARK   26  A    between atoms: _70  and  _71
REMARK   27  A    between atoms: _73  and  _75
REMARK   28  A    between atoms: _75  and  _76
REMARK   29  A    between atoms: _75  and  _78
REMARK   30  A    between atoms: _78  and  _79
REMARK   31  A    between atoms: _82  and  _84
REMARK   32  A    between atoms: _84  and  _85
REMARK   33  A    between atoms: _87  and  _89
REMARK   34  A    between atoms: _89  and  _90
REMARK   35  A    between atoms: _89  and  _92
REMARK   36  A    between atoms: _92  and  _93
REMARK   37  A    between atoms: _98  and  _99
REMARK   38  A    between atoms: _101  and  _103
REMARK   39  A    between atoms: _103  and  _104
REMARK   40  A    between atoms: _103  and  _106
REMARK   41  A    between atoms: _106  and  _107
REMARK   42  A    between atoms: _110  and  _112
REMARK   43  A    between atoms: _112  and  _113
REMARK   44  A    between atoms: _112  and  _115
REMARK   45  A    between atoms: _115  and  _116
REMARK   46  A    between atoms: _116  and  _117
REMARK   47  A    between atoms: _117  and  _118
REMARK   48  A    between atoms: _127  and  _129
REMARK   49  A    between atoms: _129  and  _130
REMARK   50  A    between atoms: _129  and  _132
REMARK   51  A    between atoms: _132  and  _133
REMARK   52  A    between atoms: _136  and  _138
REMARK   53  A    between atoms: _138  and  _139
REMARK   54  A    between atoms: _138  and  _141
REMARK   55  A    between atoms: _141  and  _142
REMARK   56  A    between atoms: _145  and  _147
REMARK   57  A    between atoms: _147  and  _148
REMARK   58  A    between atoms: _147  and  _150
REMARK   59  A    between atoms: _150  and  _151
REMARK   60  A    between atoms: _151  and  _152
REMARK   61  A    between atoms: _157  and  _159
REMARK   62  A    between atoms: _159  and  _160
REMARK   63  A    between atoms: _159  and  _162
REMARK   64  A    between atoms: _162  and  _163
REMARK   65  A    between atoms: _168  and  _170
REMARK   66  A    between atoms: _170  and  _171
REMARK   67  A    between atoms: _174  and  _176
REMARK   68  A    between atoms: _176  and  _177
REMARK   69  A    between atoms: _179  and  _181
REMARK   70  A    between atoms: _181  and  _182
REMARK   71  A    between atoms: _181  and  _184
REMARK   72  A    between atoms: _184  and  _185
REMARK   73  A    between atoms: _188  and  _190
REMARK   74  A    between atoms: _190  and  _191
REMARK   75  A    between atoms: _190  and  _193
REMARK   76  A    between atoms: _193  and  _194
REMARK   77  A    between atoms: _194  and  _195
REMARK   78  A    between atoms: _195  and  _196
REMARK   79  A    between atoms: _205  and  _207
REMARK   80  A    between atoms: _207  and  _208
REMARK   81  A    between atoms: _207  and  _210
REMARK   82  A    between atoms: _213  and  _215
REMARK   83  A    between atoms: _215  and  _216
REMARK   84  A    between atoms: _215  and  _218
REMARK   85  A    between atoms: _218  and  _219
REMARK   86  A    between atoms: _224  and  _225
REMARK   87  A    between atoms: _227  and  _229
REMARK   88  A    between atoms: _229  and  _230
REMARK   89  A    between atoms: _229  and  _232
REMARK   90  A    between atoms: _232  and  _233
REMARK   91  A    between atoms: _235  and  _237
REMARK   92  A    between atoms: _237  and  _238
REMARK   93  A    between atoms: _237  and  _240
REMARK   94  A    between atoms: _240  and  _241
REMARK   95  A    between atoms: _246  and  _248
REMARK   96  A    between atoms: _248  and  _249
REMARK   97  A    between atoms: _248  and  _251
REMARK   98  A    between atoms: _251  and  _252
REMARK   99  A    between atoms: _252  and  _253
REMARK  100  A    between atoms: _256  and  _258
REMARK  101  A    between atoms: _258  and  _259
REMARK  102  A    between atoms: _258  and  _261
REMARK  103  A    between atoms: _261  and  _262
REMARK  104  A    between atoms: _267  and  _268
REMARK  105  A    between atoms: _270  and  _272
REMARK  106  A    between atoms: _272  and  _273
REMARK  107  A    between atoms: _276  and  _278
REMARK  108  A    between atoms: _278  and  _279
REMARK  109  A    between atoms: _278  and  _281
REMARK  110  A    between atoms: _281  and  _282
REMARK  111  A    between atoms: _286  and  _287
REMARK  112  A    between atoms: _292  and  _294
REMARK  113  A    between atoms: _294  and  _295
REMARK  114  A    between atoms: _294  and  _297
REMARK  115  A    between atoms: _297  and  _298
REMARK  116  A    between atoms: _301  and  _303
REMARK  117  A    between atoms: _303  and  _304
REMARK  118  A    between atoms: _303  and  _306
REMARK  119  A    between atoms: _306  and  _307
REMARK  120  A    between atoms: _307  and  _308
REMARK  121  A    between atoms: _313  and  _315
REMARK  122  A    between atoms: _315  and  _316
REMARK  123  A    between atoms: _315  and  _318
REMARK  124  A    between atoms: _318  and  _319
REMARK  125  A    between atoms: _322  and  _324
REMARK  126  A    between atoms: _324  and  _325
REMARK  127  A    between atoms: _324  and  _327
REMARK  128  A    between atoms: _327  and  _328
REMARK  129  A    between atoms: _331  and  _333
REMARK  130  A    between atoms: _333  and  _334
REMARK  131  A    between atoms: _333  and  _336
REMARK  132  A    between atoms: _336  and  _337
REMARK  133  A    between atoms: _343  and  _345
REMARK  134  A    between atoms: _345  and  _346
REMARK  135  A    between atoms: _348  and  _350
REMARK  136  A    between atoms: _350  and  _351
REMARK  137  A    between atoms: _350  and  _353
REMARK  138  A    between atoms: _353  and  _354
REMARK  139  A    between atoms: _357  and  _359
REMARK  140  A    between atoms: _359  and  _360
REMARK  141  A    between atoms: _363  and  _365
REMARK  142  A    between atoms: _365  and  _366
REMARK  143  A    between atoms: _365  and  _368
REMARK  144  A    between atoms: _368  and  _369
REMARK  145  A    between atoms: _379  and  _381
REMARK  146  A    between atoms: _381  and  _382
REMARK  147  A    between atoms: _381  and  _384
REMARK  148  A    between atoms: _384  and  _385
REMARK  149  A    between atoms: _387  and  _389
REMARK  150  A    between atoms: _389  and  _390
REMARK  151  A    between atoms: _389  and  _392
REMARK  152  A    between atoms: _392  and  _393
REMARK  153  A    between atoms: _398  and  _399
REMARK  154  A    between atoms: _401  and  _403
REMARK  155  A    between atoms: _403  and  _404
REMARK  156  A    between atoms: _403  and  _406
REMARK  157  A    between atoms: _406  and  _407
REMARK  158  A    between atoms: _412  and  _413
REMARK  159  A    between atoms: _415  and  _417
REMARK  160  A    between atoms: _417  and  _418
REMARK  161  A    between atoms: _417  and  _420
REMARK  162  A    between atoms: _420  and  _421
REMARK  163  A    between atoms: _424  and  _426
REMARK  164  A    between atoms: _426  and  _427
REMARK  165  A    between atoms: _429  and  _431
REMARK  166  A    between atoms: _431  and  _432
REMARK  167  A    between atoms: _431  and  _434
REMARK  168  A    between atoms: _434  and  _435
REMARK  169  A    between atoms: _440  and  _441
REMARK  170  A    between atoms: _443  and  _445
REMARK  171  A    between atoms: _445  and  _446
REMARK  172  A    between atoms: _445  and  _448
REMARK  173  A    between atoms: _448  and  _449
REMARK  174  A    between atoms: _452  and  _454
REMARK  175  A    between atoms: _454  and  _455
REMARK  176  A    between atoms: _454  and  _457
REMARK  177  A    between atoms: _457  and  _458
REMARK  178  A    between atoms: _458  and  _459
REMARK  179  A    between atoms: _459  and  _460
REMARK  180  A    between atoms: _469  and  _471
REMARK  181  A    between atoms: _471  and  _472
REMARK  182  A    between atoms: _471  and  _474
REMARK  183  A    between atoms: _474  and  _475
REMARK  184  A    between atoms: _478  and  _480
REMARK  185  A    between atoms: _480  and  _481
REMARK  186  A    between atoms: _480  and  _483
REMARK  187  A    between atoms: _483  and  _484
REMARK  188  A    between atoms: _487  and  _489
REMARK  189  A    between atoms: _489  and  _490
REMARK  190  A    between atoms: _489  and  _492
REMARK  191  A    between atoms: _492  and  _493
REMARK  192  A    between atoms: _496  and  _498
REMARK  193  A    between atoms: _498  and  _499
REMARK  194  A    between atoms: _498  and  _501
REMARK  195  A    between atoms: _501  and  _502
REMARK  196  A    between atoms: _505  and  _507
REMARK  197  A    between atoms: _507  and  _508
REMARK  198  A    between atoms: _507  and  _510
REMARK  199  A    between atoms: _510  and  _511
REMARK  200  A    between atoms: _511  and  _512
REMARK  201  A    between atoms: _517  and  _519
REMARK  202  A    between atoms: _519  and  _520
REMARK  203  A    between atoms: _519  and  _522
REMARK  204  A    between atoms: _522  and  _523
REMARK  205  A    between atoms: _528  and  _530
REMARK  206  A    between atoms: _530  and  _531
REMARK  207  A    between atoms: _534  and  _536
REMARK  208  A    between atoms: _536  and  _537
REMARK  209  A    between atoms: _536  and  _539
REMARK  210  A    between atoms: _539  and  _540
REMARK  211  A    between atoms: _543  and  _545
REMARK  212  A    between atoms: _545  and  _546
REMARK  213  A    between atoms: _545  and  _548
REMARK  214  A    between atoms: _548  and  _549
REMARK  215  A    between atoms: _549  and  _550
REMARK  216  A    between atoms: _550  and  _551
REMARK  217  A    between atoms: _560  and  _562
REMARK  218  A    between atoms: _562  and  _563
REMARK  219  A    between atoms: _562  and  _565
REMARK  220  A    between atoms: _568  and  _570
REMARK  221  A    between atoms: _570  and  _571
REMARK  222  A    between atoms: _570  and  _573
REMARK  223  A    between atoms: _573  and  _574
REMARK  224  A    between atoms: _579  and  _580
REMARK  225  A    between atoms: _582  and  _584
REMARK  226  A    between atoms: _584  and  _585
REMARK  227  A    between atoms: _584  and  _587
REMARK  228  A    between atoms: _587  and  _588
REMARK  229  A    between atoms: _590  and  _592
REMARK  230  A    between atoms: _592  and  _593
REMARK  231  A    between atoms: _592  and  _595
REMARK  232  A    between atoms: _595  and  _596
REMARK  233  A    between atoms: _601  and  _603
REMARK  234  A    between atoms: _603  and  _604
REMARK  235  A    between atoms: _603  and  _606
REMARK  236  A    between atoms: _606  and  _607
REMARK  237  A    between atoms: _609  and  _611
REMARK  238  A    between atoms: _611  and  _612
REMARK  239  A    between atoms: _611  and  _614
REMARK  240  A    between atoms: _614  and  _615
REMARK  241  A    between atoms: _615  and  _616
REMARK  242  A    between atoms: _619  and  _621
REMARK  243  A    between atoms: _621  and  _622
REMARK  244  A    between atoms: _621  and  _624
REMARK  245  A    between atoms: _624  and  _625
REMARK  246  A    between atoms: _630  and  _631
REMARK  247  A    between atoms: _633  and  _635
REMARK  248  A    between atoms: _635  and  _636
REMARK  249  A    between atoms: _639  and  _641
REMARK  250  A    between atoms: _641  and  _642
REMARK  251  A    between atoms: _641  and  _644
REMARK  252  A    between atoms: _644  and  _645
REMARK  253  A    between atoms: _649  and  _650
REMARK  254  A    between atoms: _655  and  _657
REMARK  255  A    between atoms: _657  and  _658
REMARK  256  A    between atoms: _657  and  _660
REMARK  257  A    between atoms: _660  and  _661
REMARK  258  A    between atoms: _664  and  _666
REMARK  259  A    between atoms: _666  and  _667
REMARK  260  A    between atoms: _666  and  _669
REMARK  261  A    between atoms: _669  and  _670
REMARK  262  A    between atoms: _670  and  _671
REMARK  263  A    between atoms: _676  and  _678
REMARK  264  A    between atoms: _678  and  _679
REMARK  265  A    between atoms: _678  and  _681
REMARK  266  A    between atoms: _681  and  _682
REMARK  267  A    between atoms: _685  and  _687
REMARK  268  A    between atoms: _687  and  _688
REMARK  269  A    between atoms: _687  and  _690
REMARK  270  A    between atoms: _690  and  _691
REMARK                            x       y       z     vdW  Elec       q    Type
REMARK                         _______ _______ _______ _____ _____    ______ ____
ROOT
ATOM      1  O   HOH     1      44.195  25.328  18.957  0.00  0.00    +0.000 OA
ENDROOT
TORSDOF 0
