REMARK  Name = ../refined-set-2016/4a6b/4a6b_pocket.pdb
REMARK  239 active torsions:
REMARK  status: ('A' for Active; 'I' for Inactive)
REMARK    1  A    between atoms: _1  and  _3
REMARK    2  A    between atoms: _3  and  _4
REMARK    3  A    between atoms: _3  and  _6
REMARK    4  A    between atoms: _6  and  _7
REMARK    5  A    between atoms: _7  and  _8
REMARK    6  A    between atoms: _8  and  _9
REMARK    7  A    between atoms: _18  and  _20
REMARK    8  A    between atoms: _20  and  _21
REMARK    9  A    between atoms: _20  and  _23
REMARK   10  A    between atoms: _23  and  _24
REMARK   11  A    between atoms: _27  and  _29
REMARK   12  A    between atoms: _29  and  _30
REMARK   13  A    between atoms: _29  and  _32
REMARK   14  A    between atoms: _32  and  _33
REMARK   15  A    between atoms: _36  and  _38
REMARK   16  A    between atoms: _38  and  _39
REMARK   17  A    between atoms: _38  and  _41
REMARK   18  A    between atoms: _41  and  _42
REMARK   19  A    between atoms: _45  and  _47
REMARK   20  A    between atoms: _47  and  _48
REMARK   21  A    between atoms: _47  and  _50
REMARK   22  A    between atoms: _50  and  _51
REMARK   23  A    between atoms: _54  and  _56
REMARK   24  A    between atoms: _56  and  _57
REMARK   25  A    between atoms: _59  and  _61
REMARK   26  A    between atoms: _61  and  _62
REMARK   27  A    between atoms: _65  and  _67
REMARK   28  A    between atoms: _67  and  _68
REMARK   29  A    between atoms: _67  and  _70
REMARK   30  A    between atoms: _70  and  _71
REMARK   31  A    between atoms: _74  and  _76
REMARK   32  A    between atoms: _76  and  _77
REMARK   33  A    between atoms: _76  and  _79
REMARK   34  A    between atoms: _79  and  _80
REMARK   35  A    between atoms: _83  and  _85
REMARK   36  A    between atoms: _85  and  _86
REMARK   37  A    between atoms: _85  and  _88
REMARK   38  A    between atoms: _88  and  _89
REMARK   39  A    between atoms: _92  and  _94
REMARK   40  A    between atoms: _94  and  _95
REMARK   41  A    between atoms: _94  and  _97
REMARK   42  A    between atoms: _100  and  _102
REMARK   43  A    between atoms: _102  and  _103
REMARK   44  A    between atoms: _102  and  _105
REMARK   45  A    between atoms: _105  and  _106
REMARK   46  A    between atoms: _106  and  _107
REMARK   47  A    between atoms: _107  and  _108
REMARK   48  A    between atoms: _108  and  _109
REMARK   49  A    between atoms: _113  and  _115
REMARK   50  A    between atoms: _115  and  _116
REMARK   51  A    between atoms: _115  and  _118
REMARK   52  A    between atoms: _118  and  _119
REMARK   53  A    between atoms: _119  and  _120
REMARK   54  A    between atoms: _122  and  _124
REMARK   55  A    between atoms: _124  and  _125
REMARK   56  A    between atoms: _124  and  _127
REMARK   57  A    between atoms: _127  and  _128
REMARK   58  A    between atoms: _131  and  _133
REMARK   59  A    between atoms: _133  and  _134
REMARK   60  A    between atoms: _136  and  _138
REMARK   61  A    between atoms: _138  and  _139
REMARK   62  A    between atoms: _141  and  _143
REMARK   63  A    between atoms: _143  and  _144
REMARK   64  A    between atoms: _143  and  _146
REMARK   65  A    between atoms: _146  and  _147
REMARK   66  A    between atoms: _150  and  _152
REMARK   67  A    between atoms: _152  and  _153
REMARK   68  A    between atoms: _155  and  _157
REMARK   69  A    between atoms: _157  and  _158
REMARK   70  A    between atoms: _160  and  _162
REMARK   71  A    between atoms: _162  and  _163
REMARK   72  A    between atoms: _162  and  _165
REMARK   73  A    between atoms: _165  and  _166
REMARK   74  A    between atoms: _172  and  _174
REMARK   75  A    between atoms: _174  and  _175
REMARK   76  A    between atoms: _174  and  _177
REMARK   77  A    between atoms: _177  and  _178
REMARK   78  A    between atoms: _181  and  _183
REMARK   79  A    between atoms: _183  and  _184
REMARK   80  A    between atoms: _183  and  _186
REMARK   81  A    between atoms: _189  and  _191
REMARK   82  A    between atoms: _191  and  _192
REMARK   83  A    between atoms: _191  and  _194
REMARK   84  A    between atoms: _194  and  _195
REMARK   85  A    between atoms: _198  and  _200
REMARK   86  A    between atoms: _200  and  _201
REMARK   87  A    between atoms: _200  and  _203
REMARK   88  A    between atoms: _203  and  _204
REMARK   89  A    between atoms: _208  and  _209
REMARK   90  A    between atoms: _214  and  _216
REMARK   91  A    between atoms: _216  and  _217
REMARK   92  A    between atoms: _216  and  _219
REMARK   93  A    between atoms: _219  and  _220
REMARK   94  A    between atoms: _223  and  _225
REMARK   95  A    between atoms: _225  and  _226
REMARK   96  A    between atoms: _225  and  _228
REMARK   97  A    between atoms: _228  and  _229
REMARK   98  A    between atoms: _234  and  _236
REMARK   99  A    between atoms: _236  and  _237
REMARK  100  A    between atoms: _236  and  _239
REMARK  101  A    between atoms: _242  and  _244
REMARK  102  A    between atoms: _244  and  _245
REMARK  103  A    between atoms: _244  and  _247
REMARK  104  A    between atoms: _247  and  _248
REMARK  105  A    between atoms: _251  and  _253
REMARK  106  A    between atoms: _253  and  _254
REMARK  107  A    between atoms: _256  and  _258
REMARK  108  A    between atoms: _258  and  _259
REMARK  109  A    between atoms: _258  and  _261
REMARK  110  A    between atoms: _261  and  _262
REMARK  111  A    between atoms: _262  and  _263
REMARK  112  A    between atoms: _263  and  _264
REMARK  113  A    between atoms: _273  and  _275
REMARK  114  A    between atoms: _275  and  _276
REMARK  115  A    between atoms: _275  and  _278
REMARK  116  A    between atoms: _278  and  _279
REMARK  117  A    between atoms: _284  and  _286
REMARK  118  A    between atoms: _286  and  _287
REMARK  119  A    between atoms: _286  and  _289
REMARK  120  A    between atoms: _289  and  _290
REMARK  121  A    between atoms: _290  and  _291
REMARK  122  A    between atoms: _291  and  _292
REMARK  123  A    between atoms: _301  and  _303
REMARK  124  A    between atoms: _303  and  _304
REMARK  125  A    between atoms: _303  and  _306
REMARK  126  A    between atoms: _306  and  _307
REMARK  127  A    between atoms: _310  and  _312
REMARK  128  A    between atoms: _312  and  _313
REMARK  129  A    between atoms: _316  and  _318
REMARK  130  A    between atoms: _318  and  _319
REMARK  131  A    between atoms: _318  and  _321
REMARK  132  A    between atoms: _321  and  _322
REMARK  133  A    between atoms: _325  and  _327
REMARK  134  A    between atoms: _327  and  _328
REMARK  135  A    between atoms: _327  and  _330
REMARK  136  A    between atoms: _330  and  _331
REMARK  137  A    between atoms: _334  and  _336
REMARK  138  A    between atoms: _336  and  _337
REMARK  139  A    between atoms: _336  and  _339
REMARK  140  A    between atoms: _339  and  _340
REMARK  141  A    between atoms: _343  and  _345
REMARK  142  A    between atoms: _345  and  _346
REMARK  143  A    between atoms: _345  and  _348
REMARK  144  A    between atoms: _348  and  _349
REMARK  145  A    between atoms: _352  and  _354
REMARK  146  A    between atoms: _354  and  _355
REMARK  147  A    between atoms: _357  and  _359
REMARK  148  A    between atoms: _359  and  _360
REMARK  149  A    between atoms: _363  and  _365
REMARK  150  A    between atoms: _365  and  _366
REMARK  151  A    between atoms: _365  and  _368
REMARK  152  A    between atoms: _368  and  _369
REMARK  153  A    between atoms: _372  and  _374
REMARK  154  A    between atoms: _374  and  _375
REMARK  155  A    between atoms: _374  and  _377
REMARK  156  A    between atoms: _377  and  _378
REMARK  157  A    between atoms: _381  and  _383
REMARK  158  A    between atoms: _383  and  _384
REMARK  159  A    between atoms: _383  and  _386
REMARK  160  A    between atoms: _386  and  _387
REMARK  161  A    between atoms: _390  and  _392
REMARK  162  A    between atoms: _392  and  _393
REMARK  163  A    between atoms: _392  and  _395
REMARK  164  A    between atoms: _398  and  _400
REMARK  165  A    between atoms: _400  and  _401
REMARK  166  A    between atoms: _400  and  _403
REMARK  167  A    between atoms: _403  and  _404
REMARK  168  A    between atoms: _404  and  _405
REMARK  169  A    between atoms: _408  and  _410
REMARK  170  A    between atoms: _410  and  _411
REMARK  171  A    between atoms: _410  and  _413
REMARK  172  A    between atoms: _413  and  _414
REMARK  173  A    between atoms: _414  and  _415
REMARK  174  A    between atoms: _415  and  _416
REMARK  175  A    between atoms: _416  and  _417
REMARK  176  A    between atoms: _421  and  _423
REMARK  177  A    between atoms: _423  and  _424
REMARK  178  A    between atoms: _423  and  _426
REMARK  179  A    between atoms: _426  and  _427
REMARK  180  A    between atoms: _427  and  _428
REMARK  181  A    between atoms: _430  and  _432
REMARK  182  A    between atoms: _432  and  _433
REMARK  183  A    between atoms: _432  and  _435
REMARK  184  A    between atoms: _435  and  _436
REMARK  185  A    between atoms: _439  and  _441
REMARK  186  A    between atoms: _441  and  _442
REMARK  187  A    between atoms: _444  and  _446
REMARK  188  A    between atoms: _446  and  _447
REMARK  189  A    between atoms: _449  and  _451
REMARK  190  A    between atoms: _451  and  _452
REMARK  191  A    between atoms: _451  and  _454
REMARK  192  A    between atoms: _454  and  _455
REMARK  193  A    between atoms: _458  and  _460
REMARK  194  A    between atoms: _460  and  _461
REMARK  195  A    between atoms: _463  and  _465
REMARK  196  A    between atoms: _465  and  _466
REMARK  197  A    between atoms: _468  and  _470
REMARK  198  A    between atoms: _470  and  _471
REMARK  199  A    between atoms: _470  and  _473
REMARK  200  A    between atoms: _473  and  _474
REMARK  201  A    between atoms: _480  and  _482
REMARK  202  A    between atoms: _482  and  _483
REMARK  203  A    between atoms: _482  and  _485
REMARK  204  A    between atoms: _485  and  _486
REMARK  205  A    between atoms: _489  and  _491
REMARK  206  A    between atoms: _491  and  _492
REMARK  207  A    between atoms: _491  and  _494
REMARK  208  A    between atoms: _497  and  _499
REMARK  209  A    between atoms: _499  and  _500
REMARK  210  A    between atoms: _499  and  _502
REMARK  211  A    between atoms: _502  and  _503
REMARK  212  A    between atoms: _506  and  _508
REMARK  213  A    between atoms: _508  and  _509
REMARK  214  A    between atoms: _508  and  _511
REMARK  215  A    between atoms: _511  and  _512
REMARK  216  A    between atoms: _516  and  _517
REMARK  217  A    between atoms: _522  and  _524
REMARK  218  A    between atoms: _524  and  _525
REMARK  219  A    between atoms: _524  and  _527
REMARK  220  A    between atoms: _527  and  _528
REMARK  221  A    between atoms: _531  and  _533
REMARK  222  A    between atoms: _533  and  _534
REMARK  223  A    between atoms: _533  and  _536
REMARK  224  A    between atoms: _536  and  _537
REMARK  225  A    between atoms: _542  and  _544
REMARK  226  A    between atoms: _544  and  _545
REMARK  227  A    between atoms: _544  and  _547
REMARK  228  A    between atoms: _550  and  _552
REMARK  229  A    between atoms: _552  and  _553
REMARK  230  A    between atoms: _552  and  _555
REMARK  231  A    between atoms: _555  and  _556
REMARK  232  A    between atoms: _559  and  _561
REMARK  233  A    between atoms: _561  and  _562
REMARK  234  A    between atoms: _564  and  _566
REMARK  235  A    between atoms: _566  and  _567
REMARK  236  A    between atoms: _566  and  _569
REMARK  237  A    between atoms: _569  and  _570
REMARK  238  A    between atoms: _570  and  _571
REMARK  239  A    between atoms: _571  and  _572
REMARK                            x       y       z     vdW  Elec       q    Type
REMARK                         _______ _______ _______ _____ _____    ______ ____
ROOT
ATOM      1  NE  ARG A   1      23.977  20.606   7.645  0.00  0.00    -0.265 N 
ATOM      2  CZ  ARG A   1      23.895  19.520   8.408  0.00  0.00    +0.342 C 
ATOM      3  NH2 ARG A   1      24.213  19.584   9.695  0.00  0.00    -0.292 N 
ATOM      4 HH21 ARG A   1      24.148  18.733  10.290  0.00  0.00    +0.255 HD
ATOM      5 HH22 ARG A   1      24.527  20.485  10.109  0.00  0.00    +0.255 HD
ATOM      6  NH1 ARG A   1      23.499  18.366   7.878  0.00  0.00    -0.292 N 
ATOM      7 HH11 ARG A   1      23.434  17.516   8.473  0.00  0.00    +0.255 HD
ATOM      8 HH12 ARG A   1      23.254  18.314   6.869  0.00  0.00    +0.255 HD
ATOM      9  HE  ARG A   1      23.720  20.512   6.642  0.00  0.00    +0.259 HD
ENDROOT
BRANCH   1  10
ATOM     10  CD  ARG A   1      24.403  21.923   8.115  0.00  0.00    +0.174 C 
BRANCH  10  11
ATOM     11  CG  ARG A   1      24.677  22.853   6.941  0.00  0.00    +0.045 C 
BRANCH  11  12
ATOM     12  CB  ARG A   1      25.125  24.233   7.390  0.00  0.00    +0.029 C 
BRANCH  12  13
ATOM     13  CA  ARG A   1      25.685  25.092   6.253  0.00  0.00    +0.133 C 
BRANCH  13  14
ATOM     14  N   ARG A   1      26.923  24.512   5.754  0.00  0.00    -0.239 NA
ATOM     15  H   ARG A   1      27.300  23.652   6.200  0.00  0.00    +0.142 HD
ENDBRANCH  13  14
BRANCH  13  16
ATOM     16  C   ARG A   1      26.014  26.490   6.770  0.00  0.00    +0.224 C 
ATOM     17  O   ARG A   1      26.992  26.678   7.501  0.00  0.00    -0.287 OA
ENDBRANCH  13  16
ENDBRANCH  12  13
ENDBRANCH  11  12
ENDBRANCH  10  11
ENDBRANCH   1  10
TORSDOF 6
REMARK  Name = ../refined-set-2016/4a6b/4a6b_pocket.pdb
REMARK  239 active torsions:
REMARK  status: ('A' for Active; 'I' for Inactive)
REMARK    1  A    between atoms: _1  and  _3
REMARK    2  A    between atoms: _3  and  _4
REMARK    3  A    between atoms: _3  and  _6
REMARK    4  A    between atoms: _6  and  _7
REMARK    5  A    between atoms: _7  and  _8
REMARK    6  A    between atoms: _8  and  _9
REMARK    7  A    between atoms: _18  and  _20
REMARK    8  A    between atoms: _20  and  _21
REMARK    9  A    between atoms: _20  and  _23
REMARK   10  A    between atoms: _23  and  _24
REMARK   11  A    between atoms: _27  and  _29
REMARK   12  A    between atoms: _29  and  _30
REMARK   13  A    between atoms: _29  and  _32
REMARK   14  A    between atoms: _32  and  _33
REMARK   15  A    between atoms: _36  and  _38
REMARK   16  A    between atoms: _38  and  _39
REMARK   17  A    between atoms: _38  and  _41
REMARK   18  A    between atoms: _41  and  _42
REMARK   19  A    between atoms: _45  and  _47
REMARK   20  A    between atoms: _47  and  _48
REMARK   21  A    between atoms: _47  and  _50
REMARK   22  A    between atoms: _50  and  _51
REMARK   23  A    between atoms: _54  and  _56
REMARK   24  A    between atoms: _56  and  _57
REMARK   25  A    between atoms: _59  and  _61
REMARK   26  A    between atoms: _61  and  _62
REMARK   27  A    between atoms: _65  and  _67
REMARK   28  A    between atoms: _67  and  _68
REMARK   29  A    between atoms: _67  and  _70
REMARK   30  A    between atoms: _70  and  _71
REMARK   31  A    between atoms: _74  and  _76
REMARK   32  A    between atoms: _76  and  _77
REMARK   33  A    between atoms: _76  and  _79
REMARK   34  A    between atoms: _79  and  _80
REMARK   35  A    between atoms: _83  and  _85
REMARK   36  A    between atoms: _85  and  _86
REMARK   37  A    between atoms: _85  and  _88
REMARK   38  A    between atoms: _88  and  _89
REMARK   39  A    between atoms: _92  and  _94
REMARK   40  A    between atoms: _94  and  _95
REMARK   41  A    between atoms: _94  and  _97
REMARK   42  A    between atoms: _100  and  _102
REMARK   43  A    between atoms: _102  and  _103
REMARK   44  A    between atoms: _102  and  _105
REMARK   45  A    between atoms: _105  and  _106
REMARK   46  A    between atoms: _106  and  _107
REMARK   47  A    between atoms: _107  and  _108
REMARK   48  A    between atoms: _108  and  _109
REMARK   49  A    between atoms: _113  and  _115
REMARK   50  A    between atoms: _115  and  _116
REMARK   51  A    between atoms: _115  and  _118
REMARK   52  A    between atoms: _118  and  _119
REMARK   53  A    between atoms: _119  and  _120
REMARK   54  A    between atoms: _122  and  _124
REMARK   55  A    between atoms: _124  and  _125
REMARK   56  A    between atoms: _124  and  _127
REMARK   57  A    between atoms: _127  and  _128
REMARK   58  A    between atoms: _131  and  _133
REMARK   59  A    between atoms: _133  and  _134
REMARK   60  A    between atoms: _136  and  _138
REMARK   61  A    between atoms: _138  and  _139
REMARK   62  A    between atoms: _141  and  _143
REMARK   63  A    between atoms: _143  and  _144
REMARK   64  A    between atoms: _143  and  _146
REMARK   65  A    between atoms: _146  and  _147
REMARK   66  A    between atoms: _150  and  _152
REMARK   67  A    between atoms: _152  and  _153
REMARK   68  A    between atoms: _155  and  _157
REMARK   69  A    between atoms: _157  and  _158
REMARK   70  A    between atoms: _160  and  _162
REMARK   71  A    between atoms: _162  and  _163
REMARK   72  A    between atoms: _162  and  _165
REMARK   73  A    between atoms: _165  and  _166
REMARK   74  A    between atoms: _172  and  _174
REMARK   75  A    between atoms: _174  and  _175
REMARK   76  A    between atoms: _174  and  _177
REMARK   77  A    between atoms: _177  and  _178
REMARK   78  A    between atoms: _181  and  _183
REMARK   79  A    between atoms: _183  and  _184
REMARK   80  A    between atoms: _183  and  _186
REMARK   81  A    between atoms: _189  and  _191
REMARK   82  A    between atoms: _191  and  _192
REMARK   83  A    between atoms: _191  and  _194
REMARK   84  A    between atoms: _194  and  _195
REMARK   85  A    between atoms: _198  and  _200
REMARK   86  A    between atoms: _200  and  _201
REMARK   87  A    between atoms: _200  and  _203
REMARK   88  A    between atoms: _203  and  _204
REMARK   89  A    between atoms: _208  and  _209
REMARK   90  A    between atoms: _214  and  _216
REMARK   91  A    between atoms: _216  and  _217
REMARK   92  A    between atoms: _216  and  _219
REMARK   93  A    between atoms: _219  and  _220
REMARK   94  A    between atoms: _223  and  _225
REMARK   95  A    between atoms: _225  and  _226
REMARK   96  A    between atoms: _225  and  _228
REMARK   97  A    between atoms: _228  and  _229
REMARK   98  A    between atoms: _234  and  _236
REMARK   99  A    between atoms: _236  and  _237
REMARK  100  A    between atoms: _236  and  _239
REMARK  101  A    between atoms: _242  and  _244
REMARK  102  A    between atoms: _244  and  _245
REMARK  103  A    between atoms: _244  and  _247
REMARK  104  A    between atoms: _247  and  _248
REMARK  105  A    between atoms: _251  and  _253
REMARK  106  A    between atoms: _253  and  _254
REMARK  107  A    between atoms: _256  and  _258
REMARK  108  A    between atoms: _258  and  _259
REMARK  109  A    between atoms: _258  and  _261
REMARK  110  A    between atoms: _261  and  _262
REMARK  111  A    between atoms: _262  and  _263
REMARK  112  A    between atoms: _263  and  _264
REMARK  113  A    between atoms: _273  and  _275
REMARK  114  A    between atoms: _275  and  _276
REMARK  115  A    between atoms: _275  and  _278
REMARK  116  A    between atoms: _278  and  _279
REMARK  117  A    between atoms: _284  and  _286
REMARK  118  A    between atoms: _286  and  _287
REMARK  119  A    between atoms: _286  and  _289
REMARK  120  A    between atoms: _289  and  _290
REMARK  121  A    between atoms: _290  and  _291
REMARK  122  A    between atoms: _291  and  _292
REMARK  123  A    between atoms: _301  and  _303
REMARK  124  A    between atoms: _303  and  _304
REMARK  125  A    between atoms: _303  and  _306
REMARK  126  A    between atoms: _306  and  _307
REMARK  127  A    between atoms: _310  and  _312
REMARK  128  A    between atoms: _312  and  _313
REMARK  129  A    between atoms: _316  and  _318
REMARK  130  A    between atoms: _318  and  _319
REMARK  131  A    between atoms: _318  and  _321
REMARK  132  A    between atoms: _321  and  _322
REMARK  133  A    between atoms: _325  and  _327
REMARK  134  A    between atoms: _327  and  _328
REMARK  135  A    between atoms: _327  and  _330
REMARK  136  A    between atoms: _330  and  _331
REMARK  137  A    between atoms: _334  and  _336
REMARK  138  A    between atoms: _336  and  _337
REMARK  139  A    between atoms: _336  and  _339
REMARK  140  A    between atoms: _339  and  _340
REMARK  141  A    between atoms: _343  and  _345
REMARK  142  A    between atoms: _345  and  _346
REMARK  143  A    between atoms: _345  and  _348
REMARK  144  A    between atoms: _348  and  _349
REMARK  145  A    between atoms: _352  and  _354
REMARK  146  A    between atoms: _354  and  _355
REMARK  147  A    between atoms: _357  and  _359
REMARK  148  A    between atoms: _359  and  _360
REMARK  149  A    between atoms: _363  and  _365
REMARK  150  A    between atoms: _365  and  _366
REMARK  151  A    between atoms: _365  and  _368
REMARK  152  A    between atoms: _368  and  _369
REMARK  153  A    between atoms: _372  and  _374
REMARK  154  A    between atoms: _374  and  _375
REMARK  155  A    between atoms: _374  and  _377
REMARK  156  A    between atoms: _377  and  _378
REMARK  157  A    between atoms: _381  and  _383
REMARK  158  A    between atoms: _383  and  _384
REMARK  159  A    between atoms: _383  and  _386
REMARK  160  A    between atoms: _386  and  _387
REMARK  161  A    between atoms: _390  and  _392
REMARK  162  A    between atoms: _392  and  _393
REMARK  163  A    between atoms: _392  and  _395
REMARK  164  A    between atoms: _398  and  _400
REMARK  165  A    between atoms: _400  and  _401
REMARK  166  A    between atoms: _400  and  _403
REMARK  167  A    between atoms: _403  and  _404
REMARK  168  A    between atoms: _404  and  _405
REMARK  169  A    between atoms: _408  and  _410
REMARK  170  A    between atoms: _410  and  _411
REMARK  171  A    between atoms: _410  and  _413
REMARK  172  A    between atoms: _413  and  _414
REMARK  173  A    between atoms: _414  and  _415
REMARK  174  A    between atoms: _415  and  _416
REMARK  175  A    between atoms: _416  and  _417
REMARK  176  A    between atoms: _421  and  _423
REMARK  177  A    between atoms: _423  and  _424
REMARK  178  A    between atoms: _423  and  _426
REMARK  179  A    between atoms: _426  and  _427
REMARK  180  A    between atoms: _427  and  _428
REMARK  181  A    between atoms: _430  and  _432
REMARK  182  A    between atoms: _432  and  _433
REMARK  183  A    between atoms: _432  and  _435
REMARK  184  A    between atoms: _435  and  _436
REMARK  185  A    between atoms: _439  and  _441
REMARK  186  A    between atoms: _441  and  _442
REMARK  187  A    between atoms: _444  and  _446
REMARK  188  A    between atoms: _446  and  _447
REMARK  189  A    between atoms: _449  and  _451
REMARK  190  A    between atoms: _451  and  _452
REMARK  191  A    between atoms: _451  and  _454
REMARK  192  A    between atoms: _454  and  _455
REMARK  193  A    between atoms: _458  and  _460
REMARK  194  A    between atoms: _460  and  _461
REMARK  195  A    between atoms: _463  and  _465
REMARK  196  A    between atoms: _465  and  _466
REMARK  197  A    between atoms: _468  and  _470
REMARK  198  A    between atoms: _470  and  _471
REMARK  199  A    between atoms: _470  and  _473
REMARK  200  A    between atoms: _473  and  _474
REMARK  201  A    between atoms: _480  and  _482
REMARK  202  A    between atoms: _482  and  _483
REMARK  203  A    between atoms: _482  and  _485
REMARK  204  A    between atoms: _485  and  _486
REMARK  205  A    between atoms: _489  and  _491
REMARK  206  A    between atoms: _491  and  _492
REMARK  207  A    between atoms: _491  and  _494
REMARK  208  A    between atoms: _497  and  _499
REMARK  209  A    between atoms: _499  and  _500
REMARK  210  A    between atoms: _499  and  _502
REMARK  211  A    between atoms: _502  and  _503
REMARK  212  A    between atoms: _506  and  _508
REMARK  213  A    between atoms: _508  and  _509
REMARK  214  A    between atoms: _508  and  _511
REMARK  215  A    between atoms: _511  and  _512
REMARK  216  A    between atoms: _516  and  _517
REMARK  217  A    between atoms: _522  and  _524
REMARK  218  A    between atoms: _524  and  _525
REMARK  219  A    between atoms: _524  and  _527
REMARK  220  A    between atoms: _527  and  _528
REMARK  221  A    between atoms: _531  and  _533
REMARK  222  A    between atoms: _533  and  _534
REMARK  223  A    between atoms: _533  and  _536
REMARK  224  A    between atoms: _536  and  _537
REMARK  225  A    between atoms: _542  and  _544
REMARK  226  A    between atoms: _544  and  _545
REMARK  227  A    between atoms: _544  and  _547
REMARK  228  A    between atoms: _550  and  _552
REMARK  229  A    between atoms: _552  and  _553
REMARK  230  A    between atoms: _552  and  _555
REMARK  231  A    between atoms: _555  and  _556
REMARK  232  A    between atoms: _559  and  _561
REMARK  233  A    between atoms: _561  and  _562
REMARK  234  A    between atoms: _564  and  _566
REMARK  235  A    between atoms: _566  and  _567
REMARK  236  A    between atoms: _566  and  _569
REMARK  237  A    between atoms: _569  and  _570
REMARK  238  A    between atoms: _570  and  _571
REMARK  239  A    between atoms: _571  and  _572
REMARK                            x       y       z     vdW  Elec       q    Type
REMARK                         _______ _______ _______ _____ _____    ______ ____
ROOT
ATOM      1  C   GLY A   5      12.356  28.930   3.504  0.00  0.00    +0.243 C 
ATOM      2  N   ALA A   6      12.741  29.425   4.678  0.00  0.00    -0.297 N 
ATOM      3  H   ALA A   6      13.739  29.684   4.812  0.00  0.00    +0.150 HD
ATOM      4  O   GLY A   5      11.190  28.628   3.259  0.00  0.00    -0.273 OA
ENDROOT
BRANCH   2   5
ATOM      5  CA  ALA A   6      11.800  29.617   5.793  0.00  0.00    +0.149 C 
ATOM      6  CB  ALA A   6      12.544  29.422   7.120  0.00  0.00    +0.031 C 
BRANCH   5   7
ATOM      7  C   ALA A   6      11.113  30.986   5.787  0.00  0.00    +0.241 C 
ATOM      8  N   ASP A   7       9.782  31.007   5.881  0.00  0.00    -0.297 N 
ATOM      9  H   ASP A   7       9.254  30.113   5.941  0.00  0.00    +0.150 HD
ATOM     10  O   ALA A   6      11.784  32.011   5.711  0.00  0.00    -0.273 OA
BRANCH   8  11
ATOM     11  CA  ASP A   7       9.059  32.283   5.900  0.00  0.00    +0.160 C 
BRANCH  11  12
ATOM     12  C   ASP A   7       9.390  33.048   7.183  0.00  0.00    +0.241 C 
ATOM     13  N   ASP A   8       9.463  32.334   8.305  0.00  0.00    -0.297 N 
ATOM     14  H   ASP A   8       9.289  31.309   8.266  0.00  0.00    +0.150 HD
ATOM     15  O   ASP A   7       9.577  34.264   7.158  0.00  0.00    -0.273 OA
BRANCH  13  16
ATOM     16  CA  ASP A   8       9.781  32.953   9.588  0.00  0.00    +0.160 C 
BRANCH  16  17
ATOM     17  C   ASP A   8      10.848  32.173  10.349  0.00  0.00    +0.241 C 
ATOM     18  N   THR A   9      11.404  32.807  11.376  0.00  0.00    -0.295 N 
ATOM     19  H   THR A   9      11.097  33.778  11.588  0.00  0.00    +0.150 HD
ATOM     20  O   ASP A   8      11.160  31.036  10.009  0.00  0.00    -0.273 OA
BRANCH  18  21
ATOM     21  CA  THR A   9      12.428  32.197  12.219  0.00  0.00    +0.176 C 
BRANCH  21  22
ATOM     22  C   THR A   9      11.745  31.181  13.144  0.00  0.00    +0.243 C 
ATOM     23  O   THR A   9      10.661  31.445  13.666  0.00  0.00    -0.273 OA
ATOM     24  N   VAL A  10      12.369  30.019  13.332  0.00  0.00    -0.298 N 
ATOM     25  H   VAL A  10      13.268  29.844  12.839  0.00  0.00    +0.150 HD
BRANCH  24  26
ATOM     26  CA  VAL A  10      11.829  28.982  14.211  0.00  0.00    +0.137 C 
BRANCH  26  27
ATOM     27  CB  VAL A  10      11.213  27.794  13.412  0.00  0.00    +0.026 C 
ATOM     28  CG2 VAL A  10      10.686  26.736  14.377  0.00  0.00    +0.002 C 
ATOM     29  CG1 VAL A  10      12.234  27.199  12.469  0.00  0.00    +0.002 C 
ENDBRANCH  26  27
BRANCH  26  30
ATOM     30  C   VAL A  10      12.950  28.473  15.110  0.00  0.00    +0.227 C 
ATOM     31  O   VAL A  10      13.994  28.025  14.631  0.00  0.00    -0.286 OA
ENDBRANCH  26  30
ENDBRANCH  24  26
ENDBRANCH  21  22
BRANCH  21  32
ATOM     32  CB  THR A   9      13.136  33.290  13.078  0.00  0.00    +0.137 C 
ATOM     33  CG2 THR A   9      14.080  32.670  14.092  0.00  0.00    +0.034 C 
BRANCH  32  34
ATOM     34  OG1 THR A   9      13.882  34.167  12.220  0.00  0.00    -0.382 OA
ATOM     35  HG1 THR A   9      13.266  34.600  11.577  0.00  0.00    +0.210 HD
ENDBRANCH  32  34
ENDBRANCH  21  32
ENDBRANCH  18  21
ENDBRANCH  16  17
BRANCH  16  36
ATOM     36  CB  ASP A   8       8.522  33.063  10.457  0.00  0.00    +0.143 C 
BRANCH  36  37
ATOM     37  CG  ASP A   8       7.560  34.135   9.963  0.00  0.00    +0.367 C 
ATOM     38  OD2 ASP A   8       7.902  35.332  10.064  0.00  0.00    -0.246 OA
ATOM     39  OD1 ASP A   8       6.470  33.776   9.477  0.00  0.00    -0.246 OA
ENDBRANCH  36  37
ENDBRANCH  16  36
ENDBRANCH  13  16
ENDBRANCH  11  12
BRANCH  11  40
ATOM     40  CB  ASP A   7       7.536  32.086   5.817  0.00  0.00    +0.143 C 
BRANCH  40  41
ATOM     41  CG  ASP A   7       7.083  31.448   4.506  0.00  0.00    +0.367 C 
ATOM     42  OD2 ASP A   7       6.045  30.754   4.523  0.00  0.00    -0.246 OA
ATOM     43  OD1 ASP A   7       7.741  31.641   3.459  0.00  0.00    -0.246 OA
ENDBRANCH  40  41
ENDBRANCH  11  40
ENDBRANCH   8  11
ENDBRANCH   5   7
ENDBRANCH   2   5
BRANCH   1  44
ATOM     44  CA  GLY A   5      13.426  28.761   2.440  0.00  0.00    +0.176 C 
BRANCH  44  46
ATOM     45  C   THR A   4      14.760  30.775   2.347  0.00  0.00    +0.243 C 
ATOM     46  N   GLY A   5      14.647  29.499   2.705  0.00  0.00    -0.295 N 
ATOM     47  H   GLY A   5      15.442  29.025   3.180  0.00  0.00    +0.150 HD
ATOM     48  O   THR A   4      13.860  31.391   1.781  0.00  0.00    -0.273 OA
BRANCH  45  49
ATOM     49  CA  THR A   4      16.076  31.467   2.686  0.00  0.00    +0.176 C 
BRANCH  49  52
ATOM     50  C   ASP A   3      16.479  30.546   4.902  0.00  0.00    +0.241 C 
ATOM     51  O   ASP A   3      15.423  31.023   5.335  0.00  0.00    -0.273 OA
ATOM     52  N   THR A   4      16.870  30.694   3.638  0.00  0.00    -0.295 N 
ATOM     53  H   THR A   4      17.757  30.251   3.323  0.00  0.00    +0.150 HD
BRANCH  50  54
ATOM     54  CA  ASP A   3      17.391  29.720   5.818  0.00  0.00    +0.160 C 
BRANCH  54  56
ATOM     55  C   LEU A   2      19.566  30.398   6.673  0.00  0.00    +0.241 C 
ATOM     56  N   ASP A   3      18.244  30.488   6.719  0.00  0.00    -0.297 N 
ATOM     57  H   ASP A   3      17.803  31.123   7.415  0.00  0.00    +0.150 HD
ATOM     58  O   LEU A   2      20.161  29.740   5.823  0.00  0.00    -0.273 OA
BRANCH  55  59
ATOM     59  CA  LEU A   2      20.334  31.172   7.741  0.00  0.00    +0.149 C 
BRANCH  59  62
ATOM     60  C   LEU A   1      20.181  29.448   9.457  0.00  0.00    +0.238 C 
ATOM     61  O   LEU A   1      18.999  29.706   9.649  0.00  0.00    -0.274 OA
ATOM     62  N   LEU A   2      20.924  30.119   8.577  0.00  0.00    -0.297 N 
ATOM     63  H   LEU A   2      21.935  29.894   8.481  0.00  0.00    +0.150 HD
BRANCH  60  64
ATOM     64  CA  LEU A   1      20.863  28.341  10.263  0.00  0.00    +0.145 C 
BRANCH  64  65
ATOM     65  N   LEU A   1      20.575  28.498  11.681  0.00  0.00    -0.238 NA
ATOM     66  H   LEU A   1      19.690  28.107  12.063  0.00  0.00    +0.142 HD
ENDBRANCH  64  65
BRANCH  64  67
ATOM     67  CB  LEU A   1      20.353  26.970   9.825  0.00  0.00    +0.026 C 
BRANCH  67  68
ATOM     68  CG  LEU A   1      20.645  26.468   8.420  0.00  0.00    +0.002 C 
ATOM     69  CD2 LEU A   1      22.140  26.288   8.235  0.00  0.00    +0.000 C 
ATOM     70  CD1 LEU A   1      19.918  25.128   8.233  0.00  0.00    +0.000 C 
ENDBRANCH  67  68
ENDBRANCH  64  67
ENDBRANCH  60  64
ENDBRANCH  59  62
BRANCH  59  71
ATOM     71  CB  LEU A   2      21.430  32.038   7.107  0.00  0.00    +0.029 C 
BRANCH  71  72
ATOM     72  CG  LEU A   2      22.348  32.804   8.071  0.00  0.00    +0.002 C 
ATOM     73  CD2 LEU A   2      21.529  33.792   8.892  0.00  0.00    +0.000 C 
ATOM     74  CD1 LEU A   2      23.420  33.543   7.281  0.00  0.00    +0.000 C 
ENDBRANCH  71  72
ENDBRANCH  59  71
ENDBRANCH  55  59
ENDBRANCH  54  56
BRANCH  54  75
ATOM     75  CB  ASP A   3      16.553  28.790   6.693  0.00  0.00    +0.143 C 
BRANCH  75  76
ATOM     76  CG  ASP A   3      15.828  27.724   5.910  0.00  0.00    +0.367 C 
ATOM     77  OD2 ASP A   3      15.226  26.852   6.570  0.00  0.00    -0.246 OA
ATOM     78  OD1 ASP A   3      15.848  27.758   4.666  0.00  0.00    -0.246 OA
ENDBRANCH  75  76
ENDBRANCH  54  75
ENDBRANCH  50  54
ENDBRANCH  49  52
BRANCH  49  79
ATOM     79  CB  THR A   4      16.856  31.731   1.370  0.00  0.00    +0.137 C 
ATOM     80  CG2 THR A   4      18.103  32.553   1.648  0.00  0.00    +0.034 C 
BRANCH  79  81
ATOM     81  OG1 THR A   4      17.233  30.481   0.771  0.00  0.00    -0.382 OA
ATOM     82  HG1 THR A   4      16.419  29.954   0.571  0.00  0.00    +0.210 HD
ENDBRANCH  79  81
ENDBRANCH  49  79
ENDBRANCH  45  49
ENDBRANCH  44  46
ENDBRANCH   1  44
TORSDOF 35
REMARK  Name = ../refined-set-2016/4a6b/4a6b_pocket.pdb
REMARK  239 active torsions:
REMARK  status: ('A' for Active; 'I' for Inactive)
REMARK    1  A    between atoms: _1  and  _3
REMARK    2  A    between atoms: _3  and  _4
REMARK    3  A    between atoms: _3  and  _6
REMARK    4  A    between atoms: _6  and  _7
REMARK    5  A    between atoms: _7  and  _8
REMARK    6  A    between atoms: _8  and  _9
REMARK    7  A    between atoms: _18  and  _20
REMARK    8  A    between atoms: _20  and  _21
REMARK    9  A    between atoms: _20  and  _23
REMARK   10  A    between atoms: _23  and  _24
REMARK   11  A    between atoms: _27  and  _29
REMARK   12  A    between atoms: _29  and  _30
REMARK   13  A    between atoms: _29  and  _32
REMARK   14  A    between atoms: _32  and  _33
REMARK   15  A    between atoms: _36  and  _38
REMARK   16  A    between atoms: _38  and  _39
REMARK   17  A    between atoms: _38  and  _41
REMARK   18  A    between atoms: _41  and  _42
REMARK   19  A    between atoms: _45  and  _47
REMARK   20  A    between atoms: _47  and  _48
REMARK   21  A    between atoms: _47  and  _50
REMARK   22  A    between atoms: _50  and  _51
REMARK   23  A    between atoms: _54  and  _56
REMARK   24  A    between atoms: _56  and  _57
REMARK   25  A    between atoms: _59  and  _61
REMARK   26  A    between atoms: _61  and  _62
REMARK   27  A    between atoms: _65  and  _67
REMARK   28  A    between atoms: _67  and  _68
REMARK   29  A    between atoms: _67  and  _70
REMARK   30  A    between atoms: _70  and  _71
REMARK   31  A    between atoms: _74  and  _76
REMARK   32  A    between atoms: _76  and  _77
REMARK   33  A    between atoms: _76  and  _79
REMARK   34  A    between atoms: _79  and  _80
REMARK   35  A    between atoms: _83  and  _85
REMARK   36  A    between atoms: _85  and  _86
REMARK   37  A    between atoms: _85  and  _88
REMARK   38  A    between atoms: _88  and  _89
REMARK   39  A    between atoms: _92  and  _94
REMARK   40  A    between atoms: _94  and  _95
REMARK   41  A    between atoms: _94  and  _97
REMARK   42  A    between atoms: _100  and  _102
REMARK   43  A    between atoms: _102  and  _103
REMARK   44  A    between atoms: _102  and  _105
REMARK   45  A    between atoms: _105  and  _106
REMARK   46  A    between atoms: _106  and  _107
REMARK   47  A    between atoms: _107  and  _108
REMARK   48  A    between atoms: _108  and  _109
REMARK   49  A    between atoms: _113  and  _115
REMARK   50  A    between atoms: _115  and  _116
REMARK   51  A    between atoms: _115  and  _118
REMARK   52  A    between atoms: _118  and  _119
REMARK   53  A    between atoms: _119  and  _120
REMARK   54  A    between atoms: _122  and  _124
REMARK   55  A    between atoms: _124  and  _125
REMARK   56  A    between atoms: _124  and  _127
REMARK   57  A    between atoms: _127  and  _128
REMARK   58  A    between atoms: _131  and  _133
REMARK   59  A    between atoms: _133  and  _134
REMARK   60  A    between atoms: _136  and  _138
REMARK   61  A    between atoms: _138  and  _139
REMARK   62  A    between atoms: _141  and  _143
REMARK   63  A    between atoms: _143  and  _144
REMARK   64  A    between atoms: _143  and  _146
REMARK   65  A    between atoms: _146  and  _147
REMARK   66  A    between atoms: _150  and  _152
REMARK   67  A    between atoms: _152  and  _153
REMARK   68  A    between atoms: _155  and  _157
REMARK   69  A    between atoms: _157  and  _158
REMARK   70  A    between atoms: _160  and  _162
REMARK   71  A    between atoms: _162  and  _163
REMARK   72  A    between atoms: _162  and  _165
REMARK   73  A    between atoms: _165  and  _166
REMARK   74  A    between atoms: _172  and  _174
REMARK   75  A    between atoms: _174  and  _175
REMARK   76  A    between atoms: _174  and  _177
REMARK   77  A    between atoms: _177  and  _178
REMARK   78  A    between atoms: _181  and  _183
REMARK   79  A    between atoms: _183  and  _184
REMARK   80  A    between atoms: _183  and  _186
REMARK   81  A    between atoms: _189  and  _191
REMARK   82  A    between atoms: _191  and  _192
REMARK   83  A    between atoms: _191  and  _194
REMARK   84  A    between atoms: _194  and  _195
REMARK   85  A    between atoms: _198  and  _200
REMARK   86  A    between atoms: _200  and  _201
REMARK   87  A    between atoms: _200  and  _203
REMARK   88  A    between atoms: _203  and  _204
REMARK   89  A    between atoms: _208  and  _209
REMARK   90  A    between atoms: _214  and  _216
REMARK   91  A    between atoms: _216  and  _217
REMARK   92  A    between atoms: _216  and  _219
REMARK   93  A    between atoms: _219  and  _220
REMARK   94  A    between atoms: _223  and  _225
REMARK   95  A    between atoms: _225  and  _226
REMARK   96  A    between atoms: _225  and  _228
REMARK   97  A    between atoms: _228  and  _229
REMARK   98  A    between atoms: _234  and  _236
REMARK   99  A    between atoms: _236  and  _237
REMARK  100  A    between atoms: _236  and  _239
REMARK  101  A    between atoms: _242  and  _244
REMARK  102  A    between atoms: _244  and  _245
REMARK  103  A    between atoms: _244  and  _247
REMARK  104  A    between atoms: _247  and  _248
REMARK  105  A    between atoms: _251  and  _253
REMARK  106  A    between atoms: _253  and  _254
REMARK  107  A    between atoms: _256  and  _258
REMARK  108  A    between atoms: _258  and  _259
REMARK  109  A    between atoms: _258  and  _261
REMARK  110  A    between atoms: _261  and  _262
REMARK  111  A    between atoms: _262  and  _263
REMARK  112  A    between atoms: _263  and  _264
REMARK  113  A    between atoms: _273  and  _275
REMARK  114  A    between atoms: _275  and  _276
REMARK  115  A    between atoms: _275  and  _278
REMARK  116  A    between atoms: _278  and  _279
REMARK  117  A    between atoms: _284  and  _286
REMARK  118  A    between atoms: _286  and  _287
REMARK  119  A    between atoms: _286  and  _289
REMARK  120  A    between atoms: _289  and  _290
REMARK  121  A    between atoms: _290  and  _291
REMARK  122  A    between atoms: _291  and  _292
REMARK  123  A    between atoms: _301  and  _303
REMARK  124  A    between atoms: _303  and  _304
REMARK  125  A    between atoms: _303  and  _306
REMARK  126  A    between atoms: _306  and  _307
REMARK  127  A    between atoms: _310  and  _312
REMARK  128  A    between atoms: _312  and  _313
REMARK  129  A    between atoms: _316  and  _318
REMARK  130  A    between atoms: _318  and  _319
REMARK  131  A    between atoms: _318  and  _321
REMARK  132  A    between atoms: _321  and  _322
REMARK  133  A    between atoms: _325  and  _327
REMARK  134  A    between atoms: _327  and  _328
REMARK  135  A    between atoms: _327  and  _330
REMARK  136  A    between atoms: _330  and  _331
REMARK  137  A    between atoms: _334  and  _336
REMARK  138  A    between atoms: _336  and  _337
REMARK  139  A    between atoms: _336  and  _339
REMARK  140  A    between atoms: _339  and  _340
REMARK  141  A    between atoms: _343  and  _345
REMARK  142  A    between atoms: _345  and  _346
REMARK  143  A    between atoms: _345  and  _348
REMARK  144  A    between atoms: _348  and  _349
REMARK  145  A    between atoms: _352  and  _354
REMARK  146  A    between atoms: _354  and  _355
REMARK  147  A    between atoms: _357  and  _359
REMARK  148  A    between atoms: _359  and  _360
REMARK  149  A    between atoms: _363  and  _365
REMARK  150  A    between atoms: _365  and  _366
REMARK  151  A    between atoms: _365  and  _368
REMARK  152  A    between atoms: _368  and  _369
REMARK  153  A    between atoms: _372  and  _374
REMARK  154  A    between atoms: _374  and  _375
REMARK  155  A    between atoms: _374  and  _377
REMARK  156  A    between atoms: _377  and  _378
REMARK  157  A    between atoms: _381  and  _383
REMARK  158  A    between atoms: _383  and  _384
REMARK  159  A    between atoms: _383  and  _386
REMARK  160  A    between atoms: _386  and  _387
REMARK  161  A    between atoms: _390  and  _392
REMARK  162  A    between atoms: _392  and  _393
REMARK  163  A    between atoms: _392  and  _395
REMARK  164  A    between atoms: _398  and  _400
REMARK  165  A    between atoms: _400  and  _401
REMARK  166  A    between atoms: _400  and  _403
REMARK  167  A    between atoms: _403  and  _404
REMARK  168  A    between atoms: _404  and  _405
REMARK  169  A    between atoms: _408  and  _410
REMARK  170  A    between atoms: _410  and  _411
REMARK  171  A    between atoms: _410  and  _413
REMARK  172  A    between atoms: _413  and  _414
REMARK  173  A    between atoms: _414  and  _415
REMARK  174  A    between atoms: _415  and  _416
REMARK  175  A    between atoms: _416  and  _417
REMARK  176  A    between atoms: _421  and  _423
REMARK  177  A    between atoms: _423  and  _424
REMARK  178  A    between atoms: _423  and  _426
REMARK  179  A    between atoms: _426  and  _427
REMARK  180  A    between atoms: _427  and  _428
REMARK  181  A    between atoms: _430  and  _432
REMARK  182  A    between atoms: _432  and  _433
REMARK  183  A    between atoms: _432  and  _435
REMARK  184  A    between atoms: _435  and  _436
REMARK  185  A    between atoms: _439  and  _441
REMARK  186  A    between atoms: _441  and  _442
REMARK  187  A    between atoms: _444  and  _446
REMARK  188  A    between atoms: _446  and  _447
REMARK  189  A    between atoms: _449  and  _451
REMARK  190  A    between atoms: _451  and  _452
REMARK  191  A    between atoms: _451  and  _454
REMARK  192  A    between atoms: _454  and  _455
REMARK  193  A    between atoms: _458  and  _460
REMARK  194  A    between atoms: _460  and  _461
REMARK  195  A    between atoms: _463  and  _465
REMARK  196  A    between atoms: _465  and  _466
REMARK  197  A    between atoms: _468  and  _470
REMARK  198  A    between atoms: _470  and  _471
REMARK  199  A    between atoms: _470  and  _473
REMARK  200  A    between atoms: _473  and  _474
REMARK  201  A    between atoms: _480  and  _482
REMARK  202  A    between atoms: _482  and  _483
REMARK  203  A    between atoms: _482  and  _485
REMARK  204  A    between atoms: _485  and  _486
REMARK  205  A    between atoms: _489  and  _491
REMARK  206  A    between atoms: _491  and  _492
REMARK  207  A    between atoms: _491  and  _494
REMARK  208  A    between atoms: _497  and  _499
REMARK  209  A    between atoms: _499  and  _500
REMARK  210  A    between atoms: _499  and  _502
REMARK  211  A    between atoms: _502  and  _503
REMARK  212  A    between atoms: _506  and  _508
REMARK  213  A    between atoms: _508  and  _509
REMARK  214  A    between atoms: _508  and  _511
REMARK  215  A    between atoms: _511  and  _512
REMARK  216  A    between atoms: _516  and  _517
REMARK  217  A    between atoms: _522  and  _524
REMARK  218  A    between atoms: _524  and  _525
REMARK  219  A    between atoms: _524  and  _527
REMARK  220  A    between atoms: _527  and  _528
REMARK  221  A    between atoms: _531  and  _533
REMARK  222  A    between atoms: _533  and  _534
REMARK  223  A    between atoms: _533  and  _536
REMARK  224  A    between atoms: _536  and  _537
REMARK  225  A    between atoms: _542  and  _544
REMARK  226  A    between atoms: _544  and  _545
REMARK  227  A    between atoms: _544  and  _547
REMARK  228  A    between atoms: _550  and  _552
REMARK  229  A    between atoms: _552  and  _553
REMARK  230  A    between atoms: _552  and  _555
REMARK  231  A    between atoms: _555  and  _556
REMARK  232  A    between atoms: _559  and  _561
REMARK  233  A    between atoms: _561  and  _562
REMARK  234  A    between atoms: _564  and  _566
REMARK  235  A    between atoms: _566  and  _567
REMARK  236  A    between atoms: _566  and  _569
REMARK  237  A    between atoms: _569  and  _570
REMARK  238  A    between atoms: _570  and  _571
REMARK  239  A    between atoms: _571  and  _572
REMARK                            x       y       z     vdW  Elec       q    Type
REMARK                         _______ _______ _______ _____ _____    ______ ____
ROOT
ATOM      1  C   GLY A   5       7.897  19.795   5.815  0.00  0.00    +0.243 C 
ATOM      2  O   GLY A   5       6.897  19.072   5.775  0.00  0.00    -0.273 OA
ATOM      3  N   ILE A   6       9.111  19.374   5.495  0.00  0.00    -0.297 N 
ATOM      4  H   ILE A   6       9.906  20.043   5.529  0.00  0.00    +0.150 HD
ENDROOT
BRANCH   3   5
ATOM      5  CA  ILE A   6       9.357  18.004   5.099  0.00  0.00    +0.149 C 
BRANCH   5   6
ATOM      6  C   ILE A   6       9.128  17.165   6.341  0.00  0.00    +0.241 C 
ATOM      7  O   ILE A   6       9.621  17.498   7.416  0.00  0.00    -0.273 OA
ATOM      8  N   GLY A   7       8.373  16.088   6.196  0.00  0.00    -0.295 N 
ATOM      9  H   GLY A   7       7.966  15.859   5.267  0.00  0.00    +0.150 HD
BRANCH   8  10
ATOM     10  CA  GLY A   7       8.113  15.228   7.334  0.00  0.00    +0.176 C 
BRANCH  10  11
ATOM     11  C   GLY A   7       6.766  15.467   7.995  0.00  0.00    +0.243 C 
ATOM     12  O   GLY A   7       6.303  14.634   8.774  0.00  0.00    -0.273 OA
ATOM     13  N   GLY A   8       6.132  16.594   7.694  0.00  0.00    -0.295 N 
ATOM     14  H   GLY A   8       6.560  17.270   7.030  0.00  0.00    +0.150 HD
BRANCH  13  15
ATOM     15  CA  GLY A   8       4.840  16.882   8.293  0.00  0.00    +0.176 C 
BRANCH  15  16
ATOM     16  C   GLY A   8       4.783  18.206   9.038  0.00  0.00    +0.243 C 
ATOM     17  N   PHE A   9       3.760  18.375   9.874  0.00  0.00    -0.297 N 
ATOM     18  H   PHE A   9       3.071  17.604   9.984  0.00  0.00    +0.150 HD
ATOM     19  O   GLY A   8       5.652  19.058   8.860  0.00  0.00    -0.273 OA
BRANCH  17  20
ATOM     20  CA  PHE A   9       3.569  19.609  10.645  0.00  0.00    +0.153 C 
BRANCH  20  21
ATOM     21  C   PHE A   9       3.971  19.507  12.117  0.00  0.00    +0.241 C 
ATOM     22  N   ILE A  10       4.317  20.645  12.716  0.00  0.00    -0.298 N 
ATOM     23  H   ILE A  10       4.369  21.518  12.154  0.00  0.00    +0.150 HD
ATOM     24  O   PHE A   9       3.976  18.421  12.696  0.00  0.00    -0.273 OA
BRANCH  22  25
ATOM     25  CA  ILE A  10       4.626  20.698  14.146  0.00  0.00    +0.137 C 
BRANCH  25  26
ATOM     26  C   ILE A  10       3.892  21.916  14.683  0.00  0.00    +0.227 C 
ATOM     27  O   ILE A  10       3.629  22.862  13.938  0.00  0.00    -0.286 OA
ENDBRANCH  25  26
BRANCH  25  28
ATOM     28  CB  ILE A  10       6.145  20.868  14.461  0.00  0.00    +0.026 C 
ATOM     29  CG2 ILE A  10       6.913  19.607  14.044  0.00  0.00    +0.002 C 
BRANCH  28  30
ATOM     30  CG1 ILE A  10       6.691  22.137  13.799  0.00  0.00    +0.002 C 
ATOM     31  CD1 ILE A  10       8.119  22.503  14.236  0.00  0.00    +0.000 C 
ENDBRANCH  28  30
ENDBRANCH  25  28
ENDBRANCH  22  25
ENDBRANCH  20  21
BRANCH  20  32
ATOM     32  CB  PHE A   9       2.090  20.032  10.611  0.00  0.00    +0.055 C 
BRANCH  32  33
ATOM     33  CG  PHE A   9       1.621  20.536   9.279  0.00  0.00    -0.020 A 
ATOM     34  CD2 PHE A   9       1.368  21.891   9.092  0.00  0.00    -0.004 A 
ATOM     35  CE2 PHE A   9       0.923  22.376   7.863  0.00  0.00    -0.000 A 
ATOM     36  CZ  PHE A   9       0.725  21.498   6.804  0.00  0.00    -0.000 A 
ATOM     37  CE1 PHE A   9       0.975  20.136   6.978  0.00  0.00    -0.000 A 
ATOM     38  CD1 PHE A   9       1.421  19.663   8.213  0.00  0.00    -0.004 A 
ENDBRANCH  32  33
ENDBRANCH  20  32
ENDBRANCH  17  20
ENDBRANCH  15  16
ENDBRANCH  13  15
ENDBRANCH  10  11
ENDBRANCH   8  10
ENDBRANCH   5   6
BRANCH   5  39
ATOM     39  CB  ILE A   6      10.809  17.817   4.647  0.00  0.00    +0.027 C 
ATOM     40  CG2 ILE A   6      11.060  16.370   4.285  0.00  0.00    +0.002 C 
BRANCH  39  41
ATOM     41  CG1 ILE A   6      11.094  18.733   3.461  0.00  0.00    +0.002 C 
ATOM     42  CD1 ILE A   6      10.129  18.550   2.322  0.00  0.00    +0.000 C 
ENDBRANCH  39  41
ENDBRANCH   5  39
ENDBRANCH   3   5
BRANCH   1  43
ATOM     43  CA  GLY A   5       7.797  21.239   6.237  0.00  0.00    +0.176 C 
BRANCH  43  45
ATOM     44  C   GLY A   4       5.672  22.202   6.793  0.00  0.00    +0.243 C 
ATOM     45  N   GLY A   5       6.635  21.344   7.087  0.00  0.00    -0.295 N 
ATOM     46  H   GLY A   5       6.555  20.744   7.932  0.00  0.00    +0.150 HD
ATOM     47  O   GLY A   4       5.724  22.962   5.828  0.00  0.00    -0.273 OA
BRANCH  44  48
ATOM     48  CA  GLY A   4       4.492  22.192   7.734  0.00  0.00    +0.176 C 
BRANCH  48  51
ATOM     49  C   ILE A   3       4.236  23.556   9.694  0.00  0.00    +0.241 C 
ATOM     50  O   ILE A   3       4.597  22.638  10.426  0.00  0.00    -0.273 OA
ATOM     51  N   GLY A   4       4.164  23.447   8.375  0.00  0.00    -0.295 N 
ATOM     52  H   GLY A   4       3.872  24.263   7.801  0.00  0.00    +0.150 HD
BRANCH  49  53
ATOM     53  CA  ILE A   3       3.828  24.894  10.272  0.00  0.00    +0.149 C 
BRANCH  53  55
ATOM     54  C   MET A   2       1.806  25.219  11.555  0.00  0.00    +0.241 C 
ATOM     55  N   ILE A   3       3.003  24.651  11.448  0.00  0.00    -0.297 N 
ATOM     56  H   ILE A   3       3.352  24.031  12.207  0.00  0.00    +0.150 HD
ATOM     57  O   MET A   2       1.365  25.994  10.707  0.00  0.00    -0.273 OA
BRANCH  54  58
ATOM     58  CA  MET A   2       0.985  24.891  12.792  0.00  0.00    +0.149 C 
BRANCH  58  61
ATOM     59  C   LYS A   1       0.833  26.609  14.513  0.00  0.00    +0.238 C 
ATOM     60  O   LYS A   1       1.623  26.018  15.245  0.00  0.00    -0.274 OA
ATOM     61  N   MET A   2       0.454  26.139  13.329  0.00  0.00    -0.297 N 
ATOM     62  H   MET A   2      -0.240  26.676  12.770  0.00  0.00    +0.150 HD
BRANCH  59  63
ATOM     63  CA  LYS A   1       0.218  27.934  14.945  0.00  0.00    +0.145 C 
BRANCH  63  64
ATOM     64  N   LYS A   1       0.210  28.027  16.390  0.00  0.00    -0.238 NA
ATOM     65  H   LYS A   1       0.908  27.481  16.935  0.00  0.00    +0.142 HD
ENDBRANCH  63  64
BRANCH  63  66
ATOM     66  CB  LYS A   1       1.036  29.102  14.388  0.00  0.00    +0.026 C 
BRANCH  66  67
ATOM     67  CG  LYS A   1       1.192  29.120  12.898  0.00  0.00    -0.000 C 
BRANCH  67  68
ATOM     68  CD  LYS A   1       1.956  30.352  12.478  0.00  0.00    -0.024 C 
BRANCH  68  69
ATOM     69  CE  LYS A   1       2.041  30.450  10.967  0.00  0.00    -0.086 C 
BRANCH  69  70
ATOM     70  NZ  LYS A   1       2.902  31.590  10.568  0.00  0.00    +0.380 N 
ATOM     71  HZ1 LYS A   1       3.858  31.452  10.953  0.00  0.00    -0.089 HD
ATOM     72  HZ2 LYS A   1       2.501  32.473  10.942  0.00  0.00    -0.089 HD
ATOM     73  HZ3 LYS A   1       2.948  31.641   9.530  0.00  0.00    -0.089 HD
ENDBRANCH  69  70
ENDBRANCH  68  69
ENDBRANCH  67  68
ENDBRANCH  66  67
ENDBRANCH  63  66
ENDBRANCH  59  63
ENDBRANCH  58  61
BRANCH  58  74
ATOM     74  CB  MET A   2      -0.154  23.949  12.395  0.00  0.00    +0.041 C 
BRANCH  74  75
ATOM     75  CG  MET A   2      -0.917  23.356  13.554  0.00  0.00    +0.060 C 
BRANCH  75  76
ATOM     76  SD  MET A   2       0.061  22.152  14.437  0.00  0.00    -0.139 S 
ATOM     77  CE  MET A   2      -0.365  20.655  13.567  0.00  0.00    +0.069 C 
ENDBRANCH  75  76
ENDBRANCH  74  75
ENDBRANCH  58  74
ENDBRANCH  54  58
ENDBRANCH  53  55
BRANCH  53  78
ATOM     78  CB  ILE A   3       5.085  25.731  10.589  0.00  0.00    +0.027 C 
ATOM     79  CG2 ILE A   3       4.676  27.125  11.063  0.00  0.00    +0.002 C 
BRANCH  78  80
ATOM     80  CG1 ILE A   3       5.928  25.038  11.655  0.00  0.00    +0.002 C 
ATOM     81  CD1 ILE A   3       5.304  25.062  13.024  0.00  0.00    +0.000 C 
ENDBRANCH  78  80
ENDBRANCH  53  78
ENDBRANCH  49  53
ENDBRANCH  48  51
ENDBRANCH  44  48
ENDBRANCH  43  45
ENDBRANCH   1  43
TORSDOF 36
REMARK  Name = ../refined-set-2016/4a6b/4a6b_pocket.pdb
REMARK  239 active torsions:
REMARK  status: ('A' for Active; 'I' for Inactive)
REMARK    1  A    between atoms: _1  and  _3
REMARK    2  A    between atoms: _3  and  _4
REMARK    3  A    between atoms: _3  and  _6
REMARK    4  A    between atoms: _6  and  _7
REMARK    5  A    between atoms: _7  and  _8
REMARK    6  A    between atoms: _8  and  _9
REMARK    7  A    between atoms: _18  and  _20
REMARK    8  A    between atoms: _20  and  _21
REMARK    9  A    between atoms: _20  and  _23
REMARK   10  A    between atoms: _23  and  _24
REMARK   11  A    between atoms: _27  and  _29
REMARK   12  A    between atoms: _29  and  _30
REMARK   13  A    between atoms: _29  and  _32
REMARK   14  A    between atoms: _32  and  _33
REMARK   15  A    between atoms: _36  and  _38
REMARK   16  A    between atoms: _38  and  _39
REMARK   17  A    between atoms: _38  and  _41
REMARK   18  A    between atoms: _41  and  _42
REMARK   19  A    between atoms: _45  and  _47
REMARK   20  A    between atoms: _47  and  _48
REMARK   21  A    between atoms: _47  and  _50
REMARK   22  A    between atoms: _50  and  _51
REMARK   23  A    between atoms: _54  and  _56
REMARK   24  A    between atoms: _56  and  _57
REMARK   25  A    between atoms: _59  and  _61
REMARK   26  A    between atoms: _61  and  _62
REMARK   27  A    between atoms: _65  and  _67
REMARK   28  A    between atoms: _67  and  _68
REMARK   29  A    between atoms: _67  and  _70
REMARK   30  A    between atoms: _70  and  _71
REMARK   31  A    between atoms: _74  and  _76
REMARK   32  A    between atoms: _76  and  _77
REMARK   33  A    between atoms: _76  and  _79
REMARK   34  A    between atoms: _79  and  _80
REMARK   35  A    between atoms: _83  and  _85
REMARK   36  A    between atoms: _85  and  _86
REMARK   37  A    between atoms: _85  and  _88
REMARK   38  A    between atoms: _88  and  _89
REMARK   39  A    between atoms: _92  and  _94
REMARK   40  A    between atoms: _94  and  _95
REMARK   41  A    between atoms: _94  and  _97
REMARK   42  A    between atoms: _100  and  _102
REMARK   43  A    between atoms: _102  and  _103
REMARK   44  A    between atoms: _102  and  _105
REMARK   45  A    between atoms: _105  and  _106
REMARK   46  A    between atoms: _106  and  _107
REMARK   47  A    between atoms: _107  and  _108
REMARK   48  A    between atoms: _108  and  _109
REMARK   49  A    between atoms: _113  and  _115
REMARK   50  A    between atoms: _115  and  _116
REMARK   51  A    between atoms: _115  and  _118
REMARK   52  A    between atoms: _118  and  _119
REMARK   53  A    between atoms: _119  and  _120
REMARK   54  A    between atoms: _122  and  _124
REMARK   55  A    between atoms: _124  and  _125
REMARK   56  A    between atoms: _124  and  _127
REMARK   57  A    between atoms: _127  and  _128
REMARK   58  A    between atoms: _131  and  _133
REMARK   59  A    between atoms: _133  and  _134
REMARK   60  A    between atoms: _136  and  _138
REMARK   61  A    between atoms: _138  and  _139
REMARK   62  A    between atoms: _141  and  _143
REMARK   63  A    between atoms: _143  and  _144
REMARK   64  A    between atoms: _143  and  _146
REMARK   65  A    between atoms: _146  and  _147
REMARK   66  A    between atoms: _150  and  _152
REMARK   67  A    between atoms: _152  and  _153
REMARK   68  A    between atoms: _155  and  _157
REMARK   69  A    between atoms: _157  and  _158
REMARK   70  A    between atoms: _160  and  _162
REMARK   71  A    between atoms: _162  and  _163
REMARK   72  A    between atoms: _162  and  _165
REMARK   73  A    between atoms: _165  and  _166
REMARK   74  A    between atoms: _172  and  _174
REMARK   75  A    between atoms: _174  and  _175
REMARK   76  A    between atoms: _174  and  _177
REMARK   77  A    between atoms: _177  and  _178
REMARK   78  A    between atoms: _181  and  _183
REMARK   79  A    between atoms: _183  and  _184
REMARK   80  A    between atoms: _183  and  _186
REMARK   81  A    between atoms: _189  and  _191
REMARK   82  A    between atoms: _191  and  _192
REMARK   83  A    between atoms: _191  and  _194
REMARK   84  A    between atoms: _194  and  _195
REMARK   85  A    between atoms: _198  and  _200
REMARK   86  A    between atoms: _200  and  _201
REMARK   87  A    between atoms: _200  and  _203
REMARK   88  A    between atoms: _203  and  _204
REMARK   89  A    between atoms: _208  and  _209
REMARK   90  A    between atoms: _214  and  _216
REMARK   91  A    between atoms: _216  and  _217
REMARK   92  A    between atoms: _216  and  _219
REMARK   93  A    between atoms: _219  and  _220
REMARK   94  A    between atoms: _223  and  _225
REMARK   95  A    between atoms: _225  and  _226
REMARK   96  A    between atoms: _225  and  _228
REMARK   97  A    between atoms: _228  and  _229
REMARK   98  A    between atoms: _234  and  _236
REMARK   99  A    between atoms: _236  and  _237
REMARK  100  A    between atoms: _236  and  _239
REMARK  101  A    between atoms: _242  and  _244
REMARK  102  A    between atoms: _244  and  _245
REMARK  103  A    between atoms: _244  and  _247
REMARK  104  A    between atoms: _247  and  _248
REMARK  105  A    between atoms: _251  and  _253
REMARK  106  A    between atoms: _253  and  _254
REMARK  107  A    between atoms: _256  and  _258
REMARK  108  A    between atoms: _258  and  _259
REMARK  109  A    between atoms: _258  and  _261
REMARK  110  A    between atoms: _261  and  _262
REMARK  111  A    between atoms: _262  and  _263
REMARK  112  A    between atoms: _263  and  _264
REMARK  113  A    between atoms: _273  and  _275
REMARK  114  A    between atoms: _275  and  _276
REMARK  115  A    between atoms: _275  and  _278
REMARK  116  A    between atoms: _278  and  _279
REMARK  117  A    between atoms: _284  and  _286
REMARK  118  A    between atoms: _286  and  _287
REMARK  119  A    between atoms: _286  and  _289
REMARK  120  A    between atoms: _289  and  _290
REMARK  121  A    between atoms: _290  and  _291
REMARK  122  A    between atoms: _291  and  _292
REMARK  123  A    between atoms: _301  and  _303
REMARK  124  A    between atoms: _303  and  _304
REMARK  125  A    between atoms: _303  and  _306
REMARK  126  A    between atoms: _306  and  _307
REMARK  127  A    between atoms: _310  and  _312
REMARK  128  A    between atoms: _312  and  _313
REMARK  129  A    between atoms: _316  and  _318
REMARK  130  A    between atoms: _318  and  _319
REMARK  131  A    between atoms: _318  and  _321
REMARK  132  A    between atoms: _321  and  _322
REMARK  133  A    between atoms: _325  and  _327
REMARK  134  A    between atoms: _327  and  _328
REMARK  135  A    between atoms: _327  and  _330
REMARK  136  A    between atoms: _330  and  _331
REMARK  137  A    between atoms: _334  and  _336
REMARK  138  A    between atoms: _336  and  _337
REMARK  139  A    between atoms: _336  and  _339
REMARK  140  A    between atoms: _339  and  _340
REMARK  141  A    between atoms: _343  and  _345
REMARK  142  A    between atoms: _345  and  _346
REMARK  143  A    between atoms: _345  and  _348
REMARK  144  A    between atoms: _348  and  _349
REMARK  145  A    between atoms: _352  and  _354
REMARK  146  A    between atoms: _354  and  _355
REMARK  147  A    between atoms: _357  and  _359
REMARK  148  A    between atoms: _359  and  _360
REMARK  149  A    between atoms: _363  and  _365
REMARK  150  A    between atoms: _365  and  _366
REMARK  151  A    between atoms: _365  and  _368
REMARK  152  A    between atoms: _368  and  _369
REMARK  153  A    between atoms: _372  and  _374
REMARK  154  A    between atoms: _374  and  _375
REMARK  155  A    between atoms: _374  and  _377
REMARK  156  A    between atoms: _377  and  _378
REMARK  157  A    between atoms: _381  and  _383
REMARK  158  A    between atoms: _383  and  _384
REMARK  159  A    between atoms: _383  and  _386
REMARK  160  A    between atoms: _386  and  _387
REMARK  161  A    between atoms: _390  and  _392
REMARK  162  A    between atoms: _392  and  _393
REMARK  163  A    between atoms: _392  and  _395
REMARK  164  A    between atoms: _398  and  _400
REMARK  165  A    between atoms: _400  and  _401
REMARK  166  A    between atoms: _400  and  _403
REMARK  167  A    between atoms: _403  and  _404
REMARK  168  A    between atoms: _404  and  _405
REMARK  169  A    between atoms: _408  and  _410
REMARK  170  A    between atoms: _410  and  _411
REMARK  171  A    between atoms: _410  and  _413
REMARK  172  A    between atoms: _413  and  _414
REMARK  173  A    between atoms: _414  and  _415
REMARK  174  A    between atoms: _415  and  _416
REMARK  175  A    between atoms: _416  and  _417
REMARK  176  A    between atoms: _421  and  _423
REMARK  177  A    between atoms: _423  and  _424
REMARK  178  A    between atoms: _423  and  _426
REMARK  179  A    between atoms: _426  and  _427
REMARK  180  A    between atoms: _427  and  _428
REMARK  181  A    between atoms: _430  and  _432
REMARK  182  A    between atoms: _432  and  _433
REMARK  183  A    between atoms: _432  and  _435
REMARK  184  A    between atoms: _435  and  _436
REMARK  185  A    between atoms: _439  and  _441
REMARK  186  A    between atoms: _441  and  _442
REMARK  187  A    between atoms: _444  and  _446
REMARK  188  A    between atoms: _446  and  _447
REMARK  189  A    between atoms: _449  and  _451
REMARK  190  A    between atoms: _451  and  _452
REMARK  191  A    between atoms: _451  and  _454
REMARK  192  A    between atoms: _454  and  _455
REMARK  193  A    between atoms: _458  and  _460
REMARK  194  A    between atoms: _460  and  _461
REMARK  195  A    between atoms: _463  and  _465
REMARK  196  A    between atoms: _465  and  _466
REMARK  197  A    between atoms: _468  and  _470
REMARK  198  A    between atoms: _470  and  _471
REMARK  199  A    between atoms: _470  and  _473
REMARK  200  A    between atoms: _473  and  _474
REMARK  201  A    between atoms: _480  and  _482
REMARK  202  A    between atoms: _482  and  _483
REMARK  203  A    between atoms: _482  and  _485
REMARK  204  A    between atoms: _485  and  _486
REMARK  205  A    between atoms: _489  and  _491
REMARK  206  A    between atoms: _491  and  _492
REMARK  207  A    between atoms: _491  and  _494
REMARK  208  A    between atoms: _497  and  _499
REMARK  209  A    between atoms: _499  and  _500
REMARK  210  A    between atoms: _499  and  _502
REMARK  211  A    between atoms: _502  and  _503
REMARK  212  A    between atoms: _506  and  _508
REMARK  213  A    between atoms: _508  and  _509
REMARK  214  A    between atoms: _508  and  _511
REMARK  215  A    between atoms: _511  and  _512
REMARK  216  A    between atoms: _516  and  _517
REMARK  217  A    between atoms: _522  and  _524
REMARK  218  A    between atoms: _524  and  _525
REMARK  219  A    between atoms: _524  and  _527
REMARK  220  A    between atoms: _527  and  _528
REMARK  221  A    between atoms: _531  and  _533
REMARK  222  A    between atoms: _533  and  _534
REMARK  223  A    between atoms: _533  and  _536
REMARK  224  A    between atoms: _536  and  _537
REMARK  225  A    between atoms: _542  and  _544
REMARK  226  A    between atoms: _544  and  _545
REMARK  227  A    between atoms: _544  and  _547
REMARK  228  A    between atoms: _550  and  _552
REMARK  229  A    between atoms: _552  and  _553
REMARK  230  A    between atoms: _552  and  _555
REMARK  231  A    between atoms: _555  and  _556
REMARK  232  A    between atoms: _559  and  _561
REMARK  233  A    between atoms: _561  and  _562
REMARK  234  A    between atoms: _564  and  _566
REMARK  235  A    between atoms: _566  and  _567
REMARK  236  A    between atoms: _566  and  _569
REMARK  237  A    between atoms: _569  and  _570
REMARK  238  A    between atoms: _570  and  _571
REMARK  239  A    between atoms: _571  and  _572
REMARK                            x       y       z     vdW  Elec       q    Type
REMARK                         _______ _______ _______ _____ _____    ______ ____
ROOT
ATOM      1  CA  VAL A   1       4.656  26.218  17.599  0.00  0.00    +0.133 C 
ENDROOT
BRANCH   1   2
ATOM      2  CB  VAL A   1       5.661  26.779  16.551  0.00  0.00    +0.023 C 
ATOM      3  CG2 VAL A   1       6.519  25.658  15.984  0.00  0.00    +0.002 C 
ATOM      4  CG1 VAL A   1       4.909  27.498  15.438  0.00  0.00    +0.002 C 
ENDBRANCH   1   2
BRANCH   1   5
ATOM      5  N   VAL A   1       3.746  25.232  17.016  0.00  0.00    -0.239 NA
ATOM      6  H   VAL A   1       2.975  25.561  16.400  0.00  0.00    +0.142 HD
ENDBRANCH   1   5
BRANCH   1   7
ATOM      7  C   VAL A   1       3.887  27.403  18.176  0.00  0.00    +0.224 C 
ATOM      8  O   VAL A   1       2.692  27.563  17.922  0.00  0.00    -0.287 OA
ENDBRANCH   1   7
TORSDOF 3
REMARK  Name = ../refined-set-2016/4a6b/4a6b_pocket.pdb
REMARK  239 active torsions:
REMARK  status: ('A' for Active; 'I' for Inactive)
REMARK    1  A    between atoms: _1  and  _3
REMARK    2  A    between atoms: _3  and  _4
REMARK    3  A    between atoms: _3  and  _6
REMARK    4  A    between atoms: _6  and  _7
REMARK    5  A    between atoms: _7  and  _8
REMARK    6  A    between atoms: _8  and  _9
REMARK    7  A    between atoms: _18  and  _20
REMARK    8  A    between atoms: _20  and  _21
REMARK    9  A    between atoms: _20  and  _23
REMARK   10  A    between atoms: _23  and  _24
REMARK   11  A    between atoms: _27  and  _29
REMARK   12  A    between atoms: _29  and  _30
REMARK   13  A    between atoms: _29  and  _32
REMARK   14  A    between atoms: _32  and  _33
REMARK   15  A    between atoms: _36  and  _38
REMARK   16  A    between atoms: _38  and  _39
REMARK   17  A    between atoms: _38  and  _41
REMARK   18  A    between atoms: _41  and  _42
REMARK   19  A    between atoms: _45  and  _47
REMARK   20  A    between atoms: _47  and  _48
REMARK   21  A    between atoms: _47  and  _50
REMARK   22  A    between atoms: _50  and  _51
REMARK   23  A    between atoms: _54  and  _56
REMARK   24  A    between atoms: _56  and  _57
REMARK   25  A    between atoms: _59  and  _61
REMARK   26  A    between atoms: _61  and  _62
REMARK   27  A    between atoms: _65  and  _67
REMARK   28  A    between atoms: _67  and  _68
REMARK   29  A    between atoms: _67  and  _70
REMARK   30  A    between atoms: _70  and  _71
REMARK   31  A    between atoms: _74  and  _76
REMARK   32  A    between atoms: _76  and  _77
REMARK   33  A    between atoms: _76  and  _79
REMARK   34  A    between atoms: _79  and  _80
REMARK   35  A    between atoms: _83  and  _85
REMARK   36  A    between atoms: _85  and  _86
REMARK   37  A    between atoms: _85  and  _88
REMARK   38  A    between atoms: _88  and  _89
REMARK   39  A    between atoms: _92  and  _94
REMARK   40  A    between atoms: _94  and  _95
REMARK   41  A    between atoms: _94  and  _97
REMARK   42  A    between atoms: _100  and  _102
REMARK   43  A    between atoms: _102  and  _103
REMARK   44  A    between atoms: _102  and  _105
REMARK   45  A    between atoms: _105  and  _106
REMARK   46  A    between atoms: _106  and  _107
REMARK   47  A    between atoms: _107  and  _108
REMARK   48  A    between atoms: _108  and  _109
REMARK   49  A    between atoms: _113  and  _115
REMARK   50  A    between atoms: _115  and  _116
REMARK   51  A    between atoms: _115  and  _118
REMARK   52  A    between atoms: _118  and  _119
REMARK   53  A    between atoms: _119  and  _120
REMARK   54  A    between atoms: _122  and  _124
REMARK   55  A    between atoms: _124  and  _125
REMARK   56  A    between atoms: _124  and  _127
REMARK   57  A    between atoms: _127  and  _128
REMARK   58  A    between atoms: _131  and  _133
REMARK   59  A    between atoms: _133  and  _134
REMARK   60  A    between atoms: _136  and  _138
REMARK   61  A    between atoms: _138  and  _139
REMARK   62  A    between atoms: _141  and  _143
REMARK   63  A    between atoms: _143  and  _144
REMARK   64  A    between atoms: _143  and  _146
REMARK   65  A    between atoms: _146  and  _147
REMARK   66  A    between atoms: _150  and  _152
REMARK   67  A    between atoms: _152  and  _153
REMARK   68  A    between atoms: _155  and  _157
REMARK   69  A    between atoms: _157  and  _158
REMARK   70  A    between atoms: _160  and  _162
REMARK   71  A    between atoms: _162  and  _163
REMARK   72  A    between atoms: _162  and  _165
REMARK   73  A    between atoms: _165  and  _166
REMARK   74  A    between atoms: _172  and  _174
REMARK   75  A    between atoms: _174  and  _175
REMARK   76  A    between atoms: _174  and  _177
REMARK   77  A    between atoms: _177  and  _178
REMARK   78  A    between atoms: _181  and  _183
REMARK   79  A    between atoms: _183  and  _184
REMARK   80  A    between atoms: _183  and  _186
REMARK   81  A    between atoms: _189  and  _191
REMARK   82  A    between atoms: _191  and  _192
REMARK   83  A    between atoms: _191  and  _194
REMARK   84  A    between atoms: _194  and  _195
REMARK   85  A    between atoms: _198  and  _200
REMARK   86  A    between atoms: _200  and  _201
REMARK   87  A    between atoms: _200  and  _203
REMARK   88  A    between atoms: _203  and  _204
REMARK   89  A    between atoms: _208  and  _209
REMARK   90  A    between atoms: _214  and  _216
REMARK   91  A    between atoms: _216  and  _217
REMARK   92  A    between atoms: _216  and  _219
REMARK   93  A    between atoms: _219  and  _220
REMARK   94  A    between atoms: _223  and  _225
REMARK   95  A    between atoms: _225  and  _226
REMARK   96  A    between atoms: _225  and  _228
REMARK   97  A    between atoms: _228  and  _229
REMARK   98  A    between atoms: _234  and  _236
REMARK   99  A    between atoms: _236  and  _237
REMARK  100  A    between atoms: _236  and  _239
REMARK  101  A    between atoms: _242  and  _244
REMARK  102  A    between atoms: _244  and  _245
REMARK  103  A    between atoms: _244  and  _247
REMARK  104  A    between atoms: _247  and  _248
REMARK  105  A    between atoms: _251  and  _253
REMARK  106  A    between atoms: _253  and  _254
REMARK  107  A    between atoms: _256  and  _258
REMARK  108  A    between atoms: _258  and  _259
REMARK  109  A    between atoms: _258  and  _261
REMARK  110  A    between atoms: _261  and  _262
REMARK  111  A    between atoms: _262  and  _263
REMARK  112  A    between atoms: _263  and  _264
REMARK  113  A    between atoms: _273  and  _275
REMARK  114  A    between atoms: _275  and  _276
REMARK  115  A    between atoms: _275  and  _278
REMARK  116  A    between atoms: _278  and  _279
REMARK  117  A    between atoms: _284  and  _286
REMARK  118  A    between atoms: _286  and  _287
REMARK  119  A    between atoms: _286  and  _289
REMARK  120  A    between atoms: _289  and  _290
REMARK  121  A    between atoms: _290  and  _291
REMARK  122  A    between atoms: _291  and  _292
REMARK  123  A    between atoms: _301  and  _303
REMARK  124  A    between atoms: _303  and  _304
REMARK  125  A    between atoms: _303  and  _306
REMARK  126  A    between atoms: _306  and  _307
REMARK  127  A    between atoms: _310  and  _312
REMARK  128  A    between atoms: _312  and  _313
REMARK  129  A    between atoms: _316  and  _318
REMARK  130  A    between atoms: _318  and  _319
REMARK  131  A    between atoms: _318  and  _321
REMARK  132  A    between atoms: _321  and  _322
REMARK  133  A    between atoms: _325  and  _327
REMARK  134  A    between atoms: _327  and  _328
REMARK  135  A    between atoms: _327  and  _330
REMARK  136  A    between atoms: _330  and  _331
REMARK  137  A    between atoms: _334  and  _336
REMARK  138  A    between atoms: _336  and  _337
REMARK  139  A    between atoms: _336  and  _339
REMARK  140  A    between atoms: _339  and  _340
REMARK  141  A    between atoms: _343  and  _345
REMARK  142  A    between atoms: _345  and  _346
REMARK  143  A    between atoms: _345  and  _348
REMARK  144  A    between atoms: _348  and  _349
REMARK  145  A    between atoms: _352  and  _354
REMARK  146  A    between atoms: _354  and  _355
REMARK  147  A    between atoms: _357  and  _359
REMARK  148  A    between atoms: _359  and  _360
REMARK  149  A    between atoms: _363  and  _365
REMARK  150  A    between atoms: _365  and  _366
REMARK  151  A    between atoms: _365  and  _368
REMARK  152  A    between atoms: _368  and  _369
REMARK  153  A    between atoms: _372  and  _374
REMARK  154  A    between atoms: _374  and  _375
REMARK  155  A    between atoms: _374  and  _377
REMARK  156  A    between atoms: _377  and  _378
REMARK  157  A    between atoms: _381  and  _383
REMARK  158  A    between atoms: _383  and  _384
REMARK  159  A    between atoms: _383  and  _386
REMARK  160  A    between atoms: _386  and  _387
REMARK  161  A    between atoms: _390  and  _392
REMARK  162  A    between atoms: _392  and  _393
REMARK  163  A    between atoms: _392  and  _395
REMARK  164  A    between atoms: _398  and  _400
REMARK  165  A    between atoms: _400  and  _401
REMARK  166  A    between atoms: _400  and  _403
REMARK  167  A    between atoms: _403  and  _404
REMARK  168  A    between atoms: _404  and  _405
REMARK  169  A    between atoms: _408  and  _410
REMARK  170  A    between atoms: _410  and  _411
REMARK  171  A    between atoms: _410  and  _413
REMARK  172  A    between atoms: _413  and  _414
REMARK  173  A    between atoms: _414  and  _415
REMARK  174  A    between atoms: _415  and  _416
REMARK  175  A    between atoms: _416  and  _417
REMARK  176  A    between atoms: _421  and  _423
REMARK  177  A    between atoms: _423  and  _424
REMARK  178  A    between atoms: _423  and  _426
REMARK  179  A    between atoms: _426  and  _427
REMARK  180  A    between atoms: _427  and  _428
REMARK  181  A    between atoms: _430  and  _432
REMARK  182  A    between atoms: _432  and  _433
REMARK  183  A    between atoms: _432  and  _435
REMARK  184  A    between atoms: _435  and  _436
REMARK  185  A    between atoms: _439  and  _441
REMARK  186  A    between atoms: _441  and  _442
REMARK  187  A    between atoms: _444  and  _446
REMARK  188  A    between atoms: _446  and  _447
REMARK  189  A    between atoms: _449  and  _451
REMARK  190  A    between atoms: _451  and  _452
REMARK  191  A    between atoms: _451  and  _454
REMARK  192  A    between atoms: _454  and  _455
REMARK  193  A    between atoms: _458  and  _460
REMARK  194  A    between atoms: _460  and  _461
REMARK  195  A    between atoms: _463  and  _465
REMARK  196  A    between atoms: _465  and  _466
REMARK  197  A    between atoms: _468  and  _470
REMARK  198  A    between atoms: _470  and  _471
REMARK  199  A    between atoms: _470  and  _473
REMARK  200  A    between atoms: _473  and  _474
REMARK  201  A    between atoms: _480  and  _482
REMARK  202  A    between atoms: _482  and  _483
REMARK  203  A    between atoms: _482  and  _485
REMARK  204  A    between atoms: _485  and  _486
REMARK  205  A    between atoms: _489  and  _491
REMARK  206  A    between atoms: _491  and  _492
REMARK  207  A    between atoms: _491  and  _494
REMARK  208  A    between atoms: _497  and  _499
REMARK  209  A    between atoms: _499  and  _500
REMARK  210  A    between atoms: _499  and  _502
REMARK  211  A    between atoms: _502  and  _503
REMARK  212  A    between atoms: _506  and  _508
REMARK  213  A    between atoms: _508  and  _509
REMARK  214  A    between atoms: _508  and  _511
REMARK  215  A    between atoms: _511  and  _512
REMARK  216  A    between atoms: _516  and  _517
REMARK  217  A    between atoms: _522  and  _524
REMARK  218  A    between atoms: _524  and  _525
REMARK  219  A    between atoms: _524  and  _527
REMARK  220  A    between atoms: _527  and  _528
REMARK  221  A    between atoms: _531  and  _533
REMARK  222  A    between atoms: _533  and  _534
REMARK  223  A    between atoms: _533  and  _536
REMARK  224  A    between atoms: _536  and  _537
REMARK  225  A    between atoms: _542  and  _544
REMARK  226  A    between atoms: _544  and  _545
REMARK  227  A    between atoms: _544  and  _547
REMARK  228  A    between atoms: _550  and  _552
REMARK  229  A    between atoms: _552  and  _553
REMARK  230  A    between atoms: _552  and  _555
REMARK  231  A    between atoms: _555  and  _556
REMARK  232  A    between atoms: _559  and  _561
REMARK  233  A    between atoms: _561  and  _562
REMARK  234  A    between atoms: _564  and  _566
REMARK  235  A    between atoms: _566  and  _567
REMARK  236  A    between atoms: _566  and  _569
REMARK  237  A    between atoms: _569  and  _570
REMARK  238  A    between atoms: _570  and  _571
REMARK  239  A    between atoms: _571  and  _572
REMARK                            x       y       z     vdW  Elec       q    Type
REMARK                         _______ _______ _______ _____ _____    ______ ____
ROOT
ATOM      1  CA  LEU A   1       8.155  30.763  16.239  0.00  0.00    +0.133 C 
ENDROOT
BRANCH   1   2
ATOM      2  N   LEU A   1       9.008  31.916  15.987  0.00  0.00    -0.239 NA
ATOM      3  H   LEU A   1       9.766  31.842  15.278  0.00  0.00    +0.142 HD
ENDBRANCH   1   2
BRANCH   1   4
ATOM      4  C   LEU A   1       8.966  29.824  17.129  0.00  0.00    +0.224 C 
ATOM      5  O   LEU A   1      10.117  29.509  16.826  0.00  0.00    -0.287 OA
ENDBRANCH   1   4
BRANCH   1   6
ATOM      6  CB  LEU A   1       7.787  30.078  14.917  0.00  0.00    +0.025 C 
BRANCH   6   7
ATOM      7  CG  LEU A   1       7.102  30.984  13.883  0.00  0.00    +0.002 C 
ATOM      8  CD2 LEU A   1       5.827  31.582  14.478  0.00  0.00    +0.000 C 
ATOM      9  CD1 LEU A   1       6.777  30.183  12.632  0.00  0.00    +0.000 C 
ENDBRANCH   6   7
ENDBRANCH   1   6
TORSDOF 4
REMARK  Name = ../refined-set-2016/4a6b/4a6b_pocket.pdb
REMARK  239 active torsions:
REMARK  status: ('A' for Active; 'I' for Inactive)
REMARK    1  A    between atoms: _1  and  _3
REMARK    2  A    between atoms: _3  and  _4
REMARK    3  A    between atoms: _3  and  _6
REMARK    4  A    between atoms: _6  and  _7
REMARK    5  A    between atoms: _7  and  _8
REMARK    6  A    between atoms: _8  and  _9
REMARK    7  A    between atoms: _18  and  _20
REMARK    8  A    between atoms: _20  and  _21
REMARK    9  A    between atoms: _20  and  _23
REMARK   10  A    between atoms: _23  and  _24
REMARK   11  A    between atoms: _27  and  _29
REMARK   12  A    between atoms: _29  and  _30
REMARK   13  A    between atoms: _29  and  _32
REMARK   14  A    between atoms: _32  and  _33
REMARK   15  A    between atoms: _36  and  _38
REMARK   16  A    between atoms: _38  and  _39
REMARK   17  A    between atoms: _38  and  _41
REMARK   18  A    between atoms: _41  and  _42
REMARK   19  A    between atoms: _45  and  _47
REMARK   20  A    between atoms: _47  and  _48
REMARK   21  A    between atoms: _47  and  _50
REMARK   22  A    between atoms: _50  and  _51
REMARK   23  A    between atoms: _54  and  _56
REMARK   24  A    between atoms: _56  and  _57
REMARK   25  A    between atoms: _59  and  _61
REMARK   26  A    between atoms: _61  and  _62
REMARK   27  A    between atoms: _65  and  _67
REMARK   28  A    between atoms: _67  and  _68
REMARK   29  A    between atoms: _67  and  _70
REMARK   30  A    between atoms: _70  and  _71
REMARK   31  A    between atoms: _74  and  _76
REMARK   32  A    between atoms: _76  and  _77
REMARK   33  A    between atoms: _76  and  _79
REMARK   34  A    between atoms: _79  and  _80
REMARK   35  A    between atoms: _83  and  _85
REMARK   36  A    between atoms: _85  and  _86
REMARK   37  A    between atoms: _85  and  _88
REMARK   38  A    between atoms: _88  and  _89
REMARK   39  A    between atoms: _92  and  _94
REMARK   40  A    between atoms: _94  and  _95
REMARK   41  A    between atoms: _94  and  _97
REMARK   42  A    between atoms: _100  and  _102
REMARK   43  A    between atoms: _102  and  _103
REMARK   44  A    between atoms: _102  and  _105
REMARK   45  A    between atoms: _105  and  _106
REMARK   46  A    between atoms: _106  and  _107
REMARK   47  A    between atoms: _107  and  _108
REMARK   48  A    between atoms: _108  and  _109
REMARK   49  A    between atoms: _113  and  _115
REMARK   50  A    between atoms: _115  and  _116
REMARK   51  A    between atoms: _115  and  _118
REMARK   52  A    between atoms: _118  and  _119
REMARK   53  A    between atoms: _119  and  _120
REMARK   54  A    between atoms: _122  and  _124
REMARK   55  A    between atoms: _124  and  _125
REMARK   56  A    between atoms: _124  and  _127
REMARK   57  A    between atoms: _127  and  _128
REMARK   58  A    between atoms: _131  and  _133
REMARK   59  A    between atoms: _133  and  _134
REMARK   60  A    between atoms: _136  and  _138
REMARK   61  A    between atoms: _138  and  _139
REMARK   62  A    between atoms: _141  and  _143
REMARK   63  A    between atoms: _143  and  _144
REMARK   64  A    between atoms: _143  and  _146
REMARK   65  A    between atoms: _146  and  _147
REMARK   66  A    between atoms: _150  and  _152
REMARK   67  A    between atoms: _152  and  _153
REMARK   68  A    between atoms: _155  and  _157
REMARK   69  A    between atoms: _157  and  _158
REMARK   70  A    between atoms: _160  and  _162
REMARK   71  A    between atoms: _162  and  _163
REMARK   72  A    between atoms: _162  and  _165
REMARK   73  A    between atoms: _165  and  _166
REMARK   74  A    between atoms: _172  and  _174
REMARK   75  A    between atoms: _174  and  _175
REMARK   76  A    between atoms: _174  and  _177
REMARK   77  A    between atoms: _177  and  _178
REMARK   78  A    between atoms: _181  and  _183
REMARK   79  A    between atoms: _183  and  _184
REMARK   80  A    between atoms: _183  and  _186
REMARK   81  A    between atoms: _189  and  _191
REMARK   82  A    between atoms: _191  and  _192
REMARK   83  A    between atoms: _191  and  _194
REMARK   84  A    between atoms: _194  and  _195
REMARK   85  A    between atoms: _198  and  _200
REMARK   86  A    between atoms: _200  and  _201
REMARK   87  A    between atoms: _200  and  _203
REMARK   88  A    between atoms: _203  and  _204
REMARK   89  A    between atoms: _208  and  _209
REMARK   90  A    between atoms: _214  and  _216
REMARK   91  A    between atoms: _216  and  _217
REMARK   92  A    between atoms: _216  and  _219
REMARK   93  A    between atoms: _219  and  _220
REMARK   94  A    between atoms: _223  and  _225
REMARK   95  A    between atoms: _225  and  _226
REMARK   96  A    between atoms: _225  and  _228
REMARK   97  A    between atoms: _228  and  _229
REMARK   98  A    between atoms: _234  and  _236
REMARK   99  A    between atoms: _236  and  _237
REMARK  100  A    between atoms: _236  and  _239
REMARK  101  A    between atoms: _242  and  _244
REMARK  102  A    between atoms: _244  and  _245
REMARK  103  A    between atoms: _244  and  _247
REMARK  104  A    between atoms: _247  and  _248
REMARK  105  A    between atoms: _251  and  _253
REMARK  106  A    between atoms: _253  and  _254
REMARK  107  A    between atoms: _256  and  _258
REMARK  108  A    between atoms: _258  and  _259
REMARK  109  A    between atoms: _258  and  _261
REMARK  110  A    between atoms: _261  and  _262
REMARK  111  A    between atoms: _262  and  _263
REMARK  112  A    between atoms: _263  and  _264
REMARK  113  A    between atoms: _273  and  _275
REMARK  114  A    between atoms: _275  and  _276
REMARK  115  A    between atoms: _275  and  _278
REMARK  116  A    between atoms: _278  and  _279
REMARK  117  A    between atoms: _284  and  _286
REMARK  118  A    between atoms: _286  and  _287
REMARK  119  A    between atoms: _286  and  _289
REMARK  120  A    between atoms: _289  and  _290
REMARK  121  A    between atoms: _290  and  _291
REMARK  122  A    between atoms: _291  and  _292
REMARK  123  A    between atoms: _301  and  _303
REMARK  124  A    between atoms: _303  and  _304
REMARK  125  A    between atoms: _303  and  _306
REMARK  126  A    between atoms: _306  and  _307
REMARK  127  A    between atoms: _310  and  _312
REMARK  128  A    between atoms: _312  and  _313
REMARK  129  A    between atoms: _316  and  _318
REMARK  130  A    between atoms: _318  and  _319
REMARK  131  A    between atoms: _318  and  _321
REMARK  132  A    between atoms: _321  and  _322
REMARK  133  A    between atoms: _325  and  _327
REMARK  134  A    between atoms: _327  and  _328
REMARK  135  A    between atoms: _327  and  _330
REMARK  136  A    between atoms: _330  and  _331
REMARK  137  A    between atoms: _334  and  _336
REMARK  138  A    between atoms: _336  and  _337
REMARK  139  A    between atoms: _336  and  _339
REMARK  140  A    between atoms: _339  and  _340
REMARK  141  A    between atoms: _343  and  _345
REMARK  142  A    between atoms: _345  and  _346
REMARK  143  A    between atoms: _345  and  _348
REMARK  144  A    between atoms: _348  and  _349
REMARK  145  A    between atoms: _352  and  _354
REMARK  146  A    between atoms: _354  and  _355
REMARK  147  A    between atoms: _357  and  _359
REMARK  148  A    between atoms: _359  and  _360
REMARK  149  A    between atoms: _363  and  _365
REMARK  150  A    between atoms: _365  and  _366
REMARK  151  A    between atoms: _365  and  _368
REMARK  152  A    between atoms: _368  and  _369
REMARK  153  A    between atoms: _372  and  _374
REMARK  154  A    between atoms: _374  and  _375
REMARK  155  A    between atoms: _374  and  _377
REMARK  156  A    between atoms: _377  and  _378
REMARK  157  A    between atoms: _381  and  _383
REMARK  158  A    between atoms: _383  and  _384
REMARK  159  A    between atoms: _383  and  _386
REMARK  160  A    between atoms: _386  and  _387
REMARK  161  A    between atoms: _390  and  _392
REMARK  162  A    between atoms: _392  and  _393
REMARK  163  A    between atoms: _392  and  _395
REMARK  164  A    between atoms: _398  and  _400
REMARK  165  A    between atoms: _400  and  _401
REMARK  166  A    between atoms: _400  and  _403
REMARK  167  A    between atoms: _403  and  _404
REMARK  168  A    between atoms: _404  and  _405
REMARK  169  A    between atoms: _408  and  _410
REMARK  170  A    between atoms: _410  and  _411
REMARK  171  A    between atoms: _410  and  _413
REMARK  172  A    between atoms: _413  and  _414
REMARK  173  A    between atoms: _414  and  _415
REMARK  174  A    between atoms: _415  and  _416
REMARK  175  A    between atoms: _416  and  _417
REMARK  176  A    between atoms: _421  and  _423
REMARK  177  A    between atoms: _423  and  _424
REMARK  178  A    between atoms: _423  and  _426
REMARK  179  A    between atoms: _426  and  _427
REMARK  180  A    between atoms: _427  and  _428
REMARK  181  A    between atoms: _430  and  _432
REMARK  182  A    between atoms: _432  and  _433
REMARK  183  A    between atoms: _432  and  _435
REMARK  184  A    between atoms: _435  and  _436
REMARK  185  A    between atoms: _439  and  _441
REMARK  186  A    between atoms: _441  and  _442
REMARK  187  A    between atoms: _444  and  _446
REMARK  188  A    between atoms: _446  and  _447
REMARK  189  A    between atoms: _449  and  _451
REMARK  190  A    between atoms: _451  and  _452
REMARK  191  A    between atoms: _451  and  _454
REMARK  192  A    between atoms: _454  and  _455
REMARK  193  A    between atoms: _458  and  _460
REMARK  194  A    between atoms: _460  and  _461
REMARK  195  A    between atoms: _463  and  _465
REMARK  196  A    between atoms: _465  and  _466
REMARK  197  A    between atoms: _468  and  _470
REMARK  198  A    between atoms: _470  and  _471
REMARK  199  A    between atoms: _470  and  _473
REMARK  200  A    between atoms: _473  and  _474
REMARK  201  A    between atoms: _480  and  _482
REMARK  202  A    between atoms: _482  and  _483
REMARK  203  A    between atoms: _482  and  _485
REMARK  204  A    between atoms: _485  and  _486
REMARK  205  A    between atoms: _489  and  _491
REMARK  206  A    between atoms: _491  and  _492
REMARK  207  A    between atoms: _491  and  _494
REMARK  208  A    between atoms: _497  and  _499
REMARK  209  A    between atoms: _499  and  _500
REMARK  210  A    between atoms: _499  and  _502
REMARK  211  A    between atoms: _502  and  _503
REMARK  212  A    between atoms: _506  and  _508
REMARK  213  A    between atoms: _508  and  _509
REMARK  214  A    between atoms: _508  and  _511
REMARK  215  A    between atoms: _511  and  _512
REMARK  216  A    between atoms: _516  and  _517
REMARK  217  A    between atoms: _522  and  _524
REMARK  218  A    between atoms: _524  and  _525
REMARK  219  A    between atoms: _524  and  _527
REMARK  220  A    between atoms: _527  and  _528
REMARK  221  A    between atoms: _531  and  _533
REMARK  222  A    between atoms: _533  and  _534
REMARK  223  A    between atoms: _533  and  _536
REMARK  224  A    between atoms: _536  and  _537
REMARK  225  A    between atoms: _542  and  _544
REMARK  226  A    between atoms: _544  and  _545
REMARK  227  A    between atoms: _544  and  _547
REMARK  228  A    between atoms: _550  and  _552
REMARK  229  A    between atoms: _552  and  _553
REMARK  230  A    between atoms: _552  and  _555
REMARK  231  A    between atoms: _555  and  _556
REMARK  232  A    between atoms: _559  and  _561
REMARK  233  A    between atoms: _561  and  _562
REMARK  234  A    between atoms: _564  and  _566
REMARK  235  A    between atoms: _566  and  _567
REMARK  236  A    between atoms: _566  and  _569
REMARK  237  A    between atoms: _569  and  _570
REMARK  238  A    between atoms: _570  and  _571
REMARK  239  A    between atoms: _571  and  _572
REMARK                            x       y       z     vdW  Elec       q    Type
REMARK                         _______ _______ _______ _____ _____    ______ ____
ROOT
ATOM      1  C   VAL A   5      16.047  29.917  11.651  0.00  0.00    +0.241 C 
ATOM      2  O   VAL A   5      15.082  30.314  12.300  0.00  0.00    -0.273 OA
ATOM      3  N   ILE A   6      16.812  30.722  10.919  0.00  0.00    -0.297 N 
ATOM      4  H   ILE A   6      17.641  30.328  10.430  0.00  0.00    +0.150 HD
ENDROOT
BRANCH   3   5
ATOM      5  CA  ILE A   6      16.517  32.144  10.786  0.00  0.00    +0.149 C 
BRANCH   5   6
ATOM      6  C   ILE A   6      15.818  32.290   9.436  0.00  0.00    +0.241 C 
ATOM      7  N   GLY A   7      14.585  32.783   9.461  0.00  0.00    -0.295 N 
ATOM      8  H   GLY A   7      14.161  33.066  10.367  0.00  0.00    +0.150 HD
ATOM      9  O   ILE A   6      16.388  31.968   8.387  0.00  0.00    -0.273 OA
BRANCH   7  10
ATOM     10  CA  GLY A   7      13.823  32.930   8.231  0.00  0.00    +0.176 C 
BRANCH  10  11
ATOM     11  C   GLY A   7      13.846  34.289   7.558  0.00  0.00    +0.243 C 
ATOM     12  O   GLY A   7      14.435  35.244   8.068  0.00  0.00    -0.273 OA
ATOM     13  N   ARG A   8      13.182  34.376   6.409  0.00  0.00    -0.297 N 
ATOM     14  H   ARG A   8      12.682  33.538   6.050  0.00  0.00    +0.150 HD
BRANCH  13  15
ATOM     15  CA  ARG A   8      13.134  35.616   5.636  0.00  0.00    +0.149 C 
BRANCH  15  16
ATOM     16  C   ARG A   8      12.632  36.830   6.415  0.00  0.00    +0.241 C 
ATOM     17  N   ASN A   9      11.689  36.623   7.329  0.00  0.00    -0.298 N 
ATOM     18  H   ASN A   9      11.339  35.660   7.509  0.00  0.00    +0.150 HD
ATOM     19  O   ARG A   8      13.107  37.942   6.198  0.00  0.00    -0.273 OA
BRANCH  17  20
ATOM     20  CA  ASN A   9      11.148  37.751   8.078  0.00  0.00    +0.146 C 
BRANCH  20  21
ATOM     21  C   ASN A   9      12.232  38.541   8.811  0.00  0.00    +0.227 C 
ATOM     22  O   ASN A   9      12.073  39.737   9.049  0.00  0.00    -0.286 OA
ENDBRANCH  20  21
BRANCH  20  23
ATOM     23  CB  ASN A   9      10.064  37.283   9.055  0.00  0.00    +0.112 C 
BRANCH  23  24
ATOM     24  CG  ASN A   9      10.631  36.748  10.352  0.00  0.00    +0.222 C 
ATOM     25  ND2 ASN A   9      10.466  37.522  11.427  0.00  0.00    -0.329 N 
ATOM     26 HD21 ASN A   9      10.834  37.215  12.350  0.00  0.00    +0.145 HD
ATOM     27 HD22 ASN A   9       9.970  38.432  11.341  0.00  0.00    +0.145 HD
ATOM     28  OD1 ASN A   9      11.213  35.657  10.395  0.00  0.00    -0.275 OA
ENDBRANCH  23  24
ENDBRANCH  20  23
ENDBRANCH  17  20
ENDBRANCH  15  16
BRANCH  15  29
ATOM     29  CB  ARG A   8      12.266  35.432   4.384  0.00  0.00    +0.033 C 
BRANCH  29  30
ATOM     30  CG  ARG A   8      12.734  34.325   3.454  0.00  0.00    +0.045 C 
BRANCH  30  31
ATOM     31  CD  ARG A   8      11.932  34.287   2.145  0.00  0.00    +0.174 C 
BRANCH  31  32
ATOM     32  NE  ARG A   8      10.525  33.935   2.346  0.00  0.00    -0.265 N 
ATOM     33  HE  ARG A   8      10.291  32.928   2.459  0.00  0.00    +0.259 HD
ATOM     34  CZ  ARG A   8       9.524  34.811   2.394  0.00  0.00    +0.342 C 
ATOM     35  NH2 ARG A   8       8.282  34.384   2.572  0.00  0.00    -0.292 N 
ATOM     36 HH21 ARG A   8       8.091  33.367   2.674  0.00  0.00    +0.255 HD
ATOM     37 HH22 ARG A   8       7.498  35.066   2.610  0.00  0.00    +0.255 HD
ATOM     38  NH1 ARG A   8       9.760  36.108   2.256  0.00  0.00    -0.292 N 
ATOM     39 HH11 ARG A   8       8.973  36.787   2.295  0.00  0.00    +0.255 HD
ATOM     40 HH12 ARG A   8      10.732  36.447   2.109  0.00  0.00    +0.255 HD
ENDBRANCH  31  32
ENDBRANCH  30  31
ENDBRANCH  29  30
ENDBRANCH  15  29
ENDBRANCH  13  15
ENDBRANCH  10  11
ENDBRANCH   7  10
ENDBRANCH   5   6
BRANCH   5  41
ATOM     41  CB  ILE A   6      17.778  33.006  10.744  0.00  0.00    +0.027 C 
ATOM     42  CG2 ILE A   6      17.385  34.456  10.427  0.00  0.00    +0.002 C 
BRANCH  41  43
ATOM     43  CG1 ILE A   6      18.533  32.914  12.072  0.00  0.00    +0.002 C 
ATOM     44  CD1 ILE A   6      19.957  33.440  11.987  0.00  0.00    +0.000 C 
ENDBRANCH  41  43
ENDBRANCH   5  41
ENDBRANCH   3   5
BRANCH   1  45
ATOM     45  CA  VAL A   5      16.431  28.442  11.654  0.00  0.00    +0.149 C 
BRANCH  45  47
ATOM     46  C   ASN A   4      17.387  27.120  13.441  0.00  0.00    +0.241 C 
ATOM     47  N   VAL A   5      16.379  27.838  12.970  0.00  0.00    -0.297 N 
ATOM     48  H   VAL A   5      15.531  27.971  13.558  0.00  0.00    +0.150 HD
ATOM     49  O   ASN A   4      18.445  26.951  12.830  0.00  0.00    -0.273 OA
BRANCH  46  50
ATOM     50  CA  ASN A   4      17.174  26.527  14.821  0.00  0.00    +0.158 C 
BRANCH  50  52
ATOM     51  C   THR A   3      16.696  24.216  14.242  0.00  0.00    +0.243 C 
ATOM     52  N   ASN A   4      17.504  25.108  14.807  0.00  0.00    -0.297 N 
ATOM     53  H   ASN A   4      18.389  24.786  15.248  0.00  0.00    +0.150 HD
ATOM     54  O   THR A   3      15.638  24.526  13.694  0.00  0.00    -0.273 OA
BRANCH  51  55
ATOM     55  CA  THR A   3      17.158  22.761  14.297  0.00  0.00    +0.176 C 
BRANCH  55  58
ATOM     56  C   PRO A   2      16.213  20.651  15.007  0.00  0.00    +0.241 C 
ATOM     57  O   PRO A   2      17.300  20.284  15.446  0.00  0.00    -0.273 OA
ATOM     58  N   THR A   3      16.043  21.828  14.412  0.00  0.00    -0.295 N 
ATOM     59  H   THR A   3      15.111  22.084  14.027  0.00  0.00    +0.150 HD
BRANCH  56  63
ATOM     60  C   THR A   1      13.302  21.351  15.883  0.00  0.00    +0.244 C 
ATOM     61  O   THR A   1      13.922  21.547  16.927  0.00  0.00    -0.273 OA
ATOM     62  N   PRO A   2      13.732  20.488  14.956  0.00  0.00    -0.272 N 
ATOM     63  CA  PRO A   2      14.987  19.748  15.117  0.00  0.00    +0.152 C 
ATOM     64  CB  PRO A   2      14.922  18.710  13.996  0.00  0.00    +0.031 C 
ATOM     65  CG  PRO A   2      14.099  19.394  12.954  0.00  0.00    +0.024 C 
ATOM     66  CD  PRO A   2      12.993  20.011  13.778  0.00  0.00    +0.094 C 
BRANCH  60  67
ATOM     67  CA  THR A   1      11.990  22.068  15.609  0.00  0.00    +0.172 C 
BRANCH  67  68
ATOM     68  N   THR A   1      11.275  22.165  16.876  0.00  0.00    -0.236 NA
ATOM     69  H   THR A   1      11.298  23.049  17.423  0.00  0.00    +0.142 HD
ENDBRANCH  67  68
BRANCH  67  70
ATOM     70  CB  THR A   1      12.321  23.449  15.004  0.00  0.00    +0.135 C 
ATOM     71  CG2 THR A   1      13.107  24.291  15.996  0.00  0.00    +0.034 C 
BRANCH  70  72
ATOM     72  OG1 THR A   1      13.102  23.268  13.814  0.00  0.00    -0.383 OA
ATOM     73  HG1 THR A   1      13.316  24.152  13.423  0.00  0.00    +0.210 HD
ENDBRANCH  70  72
ENDBRANCH  67  70
ENDBRANCH  60  67
ENDBRANCH  56  63
ENDBRANCH  55  58
BRANCH  55  74
ATOM     74  CB  THR A   3      18.029  22.466  13.054  0.00  0.00    +0.137 C 
ATOM     75  CG2 THR A   3      17.409  23.061  11.799  0.00  0.00    +0.034 C 
BRANCH  74  76
ATOM     76  OG1 THR A   3      19.323  23.054  13.240  0.00  0.00    -0.382 OA
ATOM     77  HG1 THR A   3      19.886  22.868  12.447  0.00  0.00    +0.210 HD
ENDBRANCH  74  76
ENDBRANCH  55  74
ENDBRANCH  51  55
ENDBRANCH  50  52
BRANCH  50  78
ATOM     78  CB  ASN A   4      18.041  27.281  15.822  0.00  0.00    +0.114 C 
BRANCH  78  79
ATOM     79  CG  ASN A   4      17.776  26.868  17.253  0.00  0.00    +0.222 C 
ATOM     80  ND2 ASN A   4      18.794  26.989  18.099  0.00  0.00    -0.329 N 
ATOM     81 HD21 ASN A   4      18.670  26.740  19.101  0.00  0.00    +0.145 HD
ATOM     82 HD22 ASN A   4      19.715  27.333  17.759  0.00  0.00    +0.145 HD
ATOM     83  OD1 ASN A   4      16.666  26.467  17.601  0.00  0.00    -0.275 OA
ENDBRANCH  78  79
ENDBRANCH  50  78
ENDBRANCH  46  50
ENDBRANCH  45  47
BRANCH  45  84
ATOM     84  CB  VAL A   5      15.500  27.669  10.699  0.00  0.00    +0.027 C 
ATOM     85  CG2 VAL A   5      16.212  26.419  10.197  0.00  0.00    +0.002 C 
ATOM     86  CG1 VAL A   5      15.075  28.546   9.539  0.00  0.00    +0.002 C 
ENDBRANCH  45  84
ENDBRANCH   1  45
TORSDOF 32
REMARK  Name = ../refined-set-2016/4a6b/4a6b_pocket.pdb
REMARK  239 active torsions:
REMARK  status: ('A' for Active; 'I' for Inactive)
REMARK    1  A    between atoms: _1  and  _3
REMARK    2  A    between atoms: _3  and  _4
REMARK    3  A    between atoms: _3  and  _6
REMARK    4  A    between atoms: _6  and  _7
REMARK    5  A    between atoms: _7  and  _8
REMARK    6  A    between atoms: _8  and  _9
REMARK    7  A    between atoms: _18  and  _20
REMARK    8  A    between atoms: _20  and  _21
REMARK    9  A    between atoms: _20  and  _23
REMARK   10  A    between atoms: _23  and  _24
REMARK   11  A    between atoms: _27  and  _29
REMARK   12  A    between atoms: _29  and  _30
REMARK   13  A    between atoms: _29  and  _32
REMARK   14  A    between atoms: _32  and  _33
REMARK   15  A    between atoms: _36  and  _38
REMARK   16  A    between atoms: _38  and  _39
REMARK   17  A    between atoms: _38  and  _41
REMARK   18  A    between atoms: _41  and  _42
REMARK   19  A    between atoms: _45  and  _47
REMARK   20  A    between atoms: _47  and  _48
REMARK   21  A    between atoms: _47  and  _50
REMARK   22  A    between atoms: _50  and  _51
REMARK   23  A    between atoms: _54  and  _56
REMARK   24  A    between atoms: _56  and  _57
REMARK   25  A    between atoms: _59  and  _61
REMARK   26  A    between atoms: _61  and  _62
REMARK   27  A    between atoms: _65  and  _67
REMARK   28  A    between atoms: _67  and  _68
REMARK   29  A    between atoms: _67  and  _70
REMARK   30  A    between atoms: _70  and  _71
REMARK   31  A    between atoms: _74  and  _76
REMARK   32  A    between atoms: _76  and  _77
REMARK   33  A    between atoms: _76  and  _79
REMARK   34  A    between atoms: _79  and  _80
REMARK   35  A    between atoms: _83  and  _85
REMARK   36  A    between atoms: _85  and  _86
REMARK   37  A    between atoms: _85  and  _88
REMARK   38  A    between atoms: _88  and  _89
REMARK   39  A    between atoms: _92  and  _94
REMARK   40  A    between atoms: _94  and  _95
REMARK   41  A    between atoms: _94  and  _97
REMARK   42  A    between atoms: _100  and  _102
REMARK   43  A    between atoms: _102  and  _103
REMARK   44  A    between atoms: _102  and  _105
REMARK   45  A    between atoms: _105  and  _106
REMARK   46  A    between atoms: _106  and  _107
REMARK   47  A    between atoms: _107  and  _108
REMARK   48  A    between atoms: _108  and  _109
REMARK   49  A    between atoms: _113  and  _115
REMARK   50  A    between atoms: _115  and  _116
REMARK   51  A    between atoms: _115  and  _118
REMARK   52  A    between atoms: _118  and  _119
REMARK   53  A    between atoms: _119  and  _120
REMARK   54  A    between atoms: _122  and  _124
REMARK   55  A    between atoms: _124  and  _125
REMARK   56  A    between atoms: _124  and  _127
REMARK   57  A    between atoms: _127  and  _128
REMARK   58  A    between atoms: _131  and  _133
REMARK   59  A    between atoms: _133  and  _134
REMARK   60  A    between atoms: _136  and  _138
REMARK   61  A    between atoms: _138  and  _139
REMARK   62  A    between atoms: _141  and  _143
REMARK   63  A    between atoms: _143  and  _144
REMARK   64  A    between atoms: _143  and  _146
REMARK   65  A    between atoms: _146  and  _147
REMARK   66  A    between atoms: _150  and  _152
REMARK   67  A    between atoms: _152  and  _153
REMARK   68  A    between atoms: _155  and  _157
REMARK   69  A    between atoms: _157  and  _158
REMARK   70  A    between atoms: _160  and  _162
REMARK   71  A    between atoms: _162  and  _163
REMARK   72  A    between atoms: _162  and  _165
REMARK   73  A    between atoms: _165  and  _166
REMARK   74  A    between atoms: _172  and  _174
REMARK   75  A    between atoms: _174  and  _175
REMARK   76  A    between atoms: _174  and  _177
REMARK   77  A    between atoms: _177  and  _178
REMARK   78  A    between atoms: _181  and  _183
REMARK   79  A    between atoms: _183  and  _184
REMARK   80  A    between atoms: _183  and  _186
REMARK   81  A    between atoms: _189  and  _191
REMARK   82  A    between atoms: _191  and  _192
REMARK   83  A    between atoms: _191  and  _194
REMARK   84  A    between atoms: _194  and  _195
REMARK   85  A    between atoms: _198  and  _200
REMARK   86  A    between atoms: _200  and  _201
REMARK   87  A    between atoms: _200  and  _203
REMARK   88  A    between atoms: _203  and  _204
REMARK   89  A    between atoms: _208  and  _209
REMARK   90  A    between atoms: _214  and  _216
REMARK   91  A    between atoms: _216  and  _217
REMARK   92  A    between atoms: _216  and  _219
REMARK   93  A    between atoms: _219  and  _220
REMARK   94  A    between atoms: _223  and  _225
REMARK   95  A    between atoms: _225  and  _226
REMARK   96  A    between atoms: _225  and  _228
REMARK   97  A    between atoms: _228  and  _229
REMARK   98  A    between atoms: _234  and  _236
REMARK   99  A    between atoms: _236  and  _237
REMARK  100  A    between atoms: _236  and  _239
REMARK  101  A    between atoms: _242  and  _244
REMARK  102  A    between atoms: _244  and  _245
REMARK  103  A    between atoms: _244  and  _247
REMARK  104  A    between atoms: _247  and  _248
REMARK  105  A    between atoms: _251  and  _253
REMARK  106  A    between atoms: _253  and  _254
REMARK  107  A    between atoms: _256  and  _258
REMARK  108  A    between atoms: _258  and  _259
REMARK  109  A    between atoms: _258  and  _261
REMARK  110  A    between atoms: _261  and  _262
REMARK  111  A    between atoms: _262  and  _263
REMARK  112  A    between atoms: _263  and  _264
REMARK  113  A    between atoms: _273  and  _275
REMARK  114  A    between atoms: _275  and  _276
REMARK  115  A    between atoms: _275  and  _278
REMARK  116  A    between atoms: _278  and  _279
REMARK  117  A    between atoms: _284  and  _286
REMARK  118  A    between atoms: _286  and  _287
REMARK  119  A    between atoms: _286  and  _289
REMARK  120  A    between atoms: _289  and  _290
REMARK  121  A    between atoms: _290  and  _291
REMARK  122  A    between atoms: _291  and  _292
REMARK  123  A    between atoms: _301  and  _303
REMARK  124  A    between atoms: _303  and  _304
REMARK  125  A    between atoms: _303  and  _306
REMARK  126  A    between atoms: _306  and  _307
REMARK  127  A    between atoms: _310  and  _312
REMARK  128  A    between atoms: _312  and  _313
REMARK  129  A    between atoms: _316  and  _318
REMARK  130  A    between atoms: _318  and  _319
REMARK  131  A    between atoms: _318  and  _321
REMARK  132  A    between atoms: _321  and  _322
REMARK  133  A    between atoms: _325  and  _327
REMARK  134  A    between atoms: _327  and  _328
REMARK  135  A    between atoms: _327  and  _330
REMARK  136  A    between atoms: _330  and  _331
REMARK  137  A    between atoms: _334  and  _336
REMARK  138  A    between atoms: _336  and  _337
REMARK  139  A    between atoms: _336  and  _339
REMARK  140  A    between atoms: _339  and  _340
REMARK  141  A    between atoms: _343  and  _345
REMARK  142  A    between atoms: _345  and  _346
REMARK  143  A    between atoms: _345  and  _348
REMARK  144  A    between atoms: _348  and  _349
REMARK  145  A    between atoms: _352  and  _354
REMARK  146  A    between atoms: _354  and  _355
REMARK  147  A    between atoms: _357  and  _359
REMARK  148  A    between atoms: _359  and  _360
REMARK  149  A    between atoms: _363  and  _365
REMARK  150  A    between atoms: _365  and  _366
REMARK  151  A    between atoms: _365  and  _368
REMARK  152  A    between atoms: _368  and  _369
REMARK  153  A    between atoms: _372  and  _374
REMARK  154  A    between atoms: _374  and  _375
REMARK  155  A    between atoms: _374  and  _377
REMARK  156  A    between atoms: _377  and  _378
REMARK  157  A    between atoms: _381  and  _383
REMARK  158  A    between atoms: _383  and  _384
REMARK  159  A    between atoms: _383  and  _386
REMARK  160  A    between atoms: _386  and  _387
REMARK  161  A    between atoms: _390  and  _392
REMARK  162  A    between atoms: _392  and  _393
REMARK  163  A    between atoms: _392  and  _395
REMARK  164  A    between atoms: _398  and  _400
REMARK  165  A    between atoms: _400  and  _401
REMARK  166  A    between atoms: _400  and  _403
REMARK  167  A    between atoms: _403  and  _404
REMARK  168  A    between atoms: _404  and  _405
REMARK  169  A    between atoms: _408  and  _410
REMARK  170  A    between atoms: _410  and  _411
REMARK  171  A    between atoms: _410  and  _413
REMARK  172  A    between atoms: _413  and  _414
REMARK  173  A    between atoms: _414  and  _415
REMARK  174  A    between atoms: _415  and  _416
REMARK  175  A    between atoms: _416  and  _417
REMARK  176  A    between atoms: _421  and  _423
REMARK  177  A    between atoms: _423  and  _424
REMARK  178  A    between atoms: _423  and  _426
REMARK  179  A    between atoms: _426  and  _427
REMARK  180  A    between atoms: _427  and  _428
REMARK  181  A    between atoms: _430  and  _432
REMARK  182  A    between atoms: _432  and  _433
REMARK  183  A    between atoms: _432  and  _435
REMARK  184  A    between atoms: _435  and  _436
REMARK  185  A    between atoms: _439  and  _441
REMARK  186  A    between atoms: _441  and  _442
REMARK  187  A    between atoms: _444  and  _446
REMARK  188  A    between atoms: _446  and  _447
REMARK  189  A    between atoms: _449  and  _451
REMARK  190  A    between atoms: _451  and  _452
REMARK  191  A    between atoms: _451  and  _454
REMARK  192  A    between atoms: _454  and  _455
REMARK  193  A    between atoms: _458  and  _460
REMARK  194  A    between atoms: _460  and  _461
REMARK  195  A    between atoms: _463  and  _465
REMARK  196  A    between atoms: _465  and  _466
REMARK  197  A    between atoms: _468  and  _470
REMARK  198  A    between atoms: _470  and  _471
REMARK  199  A    between atoms: _470  and  _473
REMARK  200  A    between atoms: _473  and  _474
REMARK  201  A    between atoms: _480  and  _482
REMARK  202  A    between atoms: _482  and  _483
REMARK  203  A    between atoms: _482  and  _485
REMARK  204  A    between atoms: _485  and  _486
REMARK  205  A    between atoms: _489  and  _491
REMARK  206  A    between atoms: _491  and  _492
REMARK  207  A    between atoms: _491  and  _494
REMARK  208  A    between atoms: _497  and  _499
REMARK  209  A    between atoms: _499  and  _500
REMARK  210  A    between atoms: _499  and  _502
REMARK  211  A    between atoms: _502  and  _503
REMARK  212  A    between atoms: _506  and  _508
REMARK  213  A    between atoms: _508  and  _509
REMARK  214  A    between atoms: _508  and  _511
REMARK  215  A    between atoms: _511  and  _512
REMARK  216  A    between atoms: _516  and  _517
REMARK  217  A    between atoms: _522  and  _524
REMARK  218  A    between atoms: _524  and  _525
REMARK  219  A    between atoms: _524  and  _527
REMARK  220  A    between atoms: _527  and  _528
REMARK  221  A    between atoms: _531  and  _533
REMARK  222  A    between atoms: _533  and  _534
REMARK  223  A    between atoms: _533  and  _536
REMARK  224  A    between atoms: _536  and  _537
REMARK  225  A    between atoms: _542  and  _544
REMARK  226  A    between atoms: _544  and  _545
REMARK  227  A    between atoms: _544  and  _547
REMARK  228  A    between atoms: _550  and  _552
REMARK  229  A    between atoms: _552  and  _553
REMARK  230  A    between atoms: _552  and  _555
REMARK  231  A    between atoms: _555  and  _556
REMARK  232  A    between atoms: _559  and  _561
REMARK  233  A    between atoms: _561  and  _562
REMARK  234  A    between atoms: _564  and  _566
REMARK  235  A    between atoms: _566  and  _567
REMARK  236  A    between atoms: _566  and  _569
REMARK  237  A    between atoms: _569  and  _570
REMARK  238  A    between atoms: _570  and  _571
REMARK  239  A    between atoms: _571  and  _572
REMARK                            x       y       z     vdW  Elec       q    Type
REMARK                         _______ _______ _______ _____ _____    ______ ____
ROOT
ATOM      1  NE  ARG A   1       6.249  30.906   0.928  0.00  0.00    -0.265 N 
ATOM      2  HE  ARG A   1       6.678  31.230   1.819  0.00  0.00    +0.259 HD
ATOM      3  CZ  ARG A   1       5.062  30.309   0.994  0.00  0.00    +0.342 C 
ATOM      4  NH2 ARG A   1       4.467  30.146   2.169  0.00  0.00    -0.292 N 
ATOM      5 HH21 ARG A   1       4.929  30.485   3.037  0.00  0.00    +0.255 HD
ATOM      6 HH22 ARG A   1       3.539  29.679   2.222  0.00  0.00    +0.255 HD
ATOM      7  NH1 ARG A   1       4.471  29.878  -0.113  0.00  0.00    -0.292 N 
ATOM      8 HH11 ARG A   1       3.543  29.412  -0.059  0.00  0.00    +0.255 HD
ATOM      9 HH12 ARG A   1       4.936  30.007  -1.034  0.00  0.00    +0.255 HD
ENDROOT
BRANCH   1  10
ATOM     10  CD  ARG A   1       6.993  31.139  -0.308  0.00  0.00    +0.174 C 
BRANCH  10  11
ATOM     11  CG  ARG A   1       8.046  32.214  -0.115  0.00  0.00    +0.045 C 
BRANCH  11  12
ATOM     12  CB  ARG A   1       8.767  32.515  -1.411  0.00  0.00    +0.029 C 
BRANCH  12  13
ATOM     13  CA  ARG A   1       9.761  33.677  -1.331  0.00  0.00    +0.133 C 
BRANCH  13  14
ATOM     14  N   ARG A   1       9.058  34.962  -1.233  0.00  0.00    -0.239 NA
ATOM     15  H   ARG A   1       8.019  34.994  -1.273  0.00  0.00    +0.142 HD
ENDBRANCH  13  14
BRANCH  13  16
ATOM     16  C   ARG A   1      10.646  33.664  -2.580  0.00  0.00    +0.224 C 
ATOM     17  O   ARG A   1      10.199  34.049  -3.662  0.00  0.00    -0.287 OA
ENDBRANCH  13  16
ENDBRANCH  12  13
ENDBRANCH  11  12
ENDBRANCH  10  11
ENDBRANCH   1  10
TORSDOF 6
REMARK  Name = ../refined-set-2016/4a6b/4a6b_pocket.pdb
REMARK  239 active torsions:
REMARK  status: ('A' for Active; 'I' for Inactive)
REMARK    1  A    between atoms: _1  and  _3
REMARK    2  A    between atoms: _3  and  _4
REMARK    3  A    between atoms: _3  and  _6
REMARK    4  A    between atoms: _6  and  _7
REMARK    5  A    between atoms: _7  and  _8
REMARK    6  A    between atoms: _8  and  _9
REMARK    7  A    between atoms: _18  and  _20
REMARK    8  A    between atoms: _20  and  _21
REMARK    9  A    between atoms: _20  and  _23
REMARK   10  A    between atoms: _23  and  _24
REMARK   11  A    between atoms: _27  and  _29
REMARK   12  A    between atoms: _29  and  _30
REMARK   13  A    between atoms: _29  and  _32
REMARK   14  A    between atoms: _32  and  _33
REMARK   15  A    between atoms: _36  and  _38
REMARK   16  A    between atoms: _38  and  _39
REMARK   17  A    between atoms: _38  and  _41
REMARK   18  A    between atoms: _41  and  _42
REMARK   19  A    between atoms: _45  and  _47
REMARK   20  A    between atoms: _47  and  _48
REMARK   21  A    between atoms: _47  and  _50
REMARK   22  A    between atoms: _50  and  _51
REMARK   23  A    between atoms: _54  and  _56
REMARK   24  A    between atoms: _56  and  _57
REMARK   25  A    between atoms: _59  and  _61
REMARK   26  A    between atoms: _61  and  _62
REMARK   27  A    between atoms: _65  and  _67
REMARK   28  A    between atoms: _67  and  _68
REMARK   29  A    between atoms: _67  and  _70
REMARK   30  A    between atoms: _70  and  _71
REMARK   31  A    between atoms: _74  and  _76
REMARK   32  A    between atoms: _76  and  _77
REMARK   33  A    between atoms: _76  and  _79
REMARK   34  A    between atoms: _79  and  _80
REMARK   35  A    between atoms: _83  and  _85
REMARK   36  A    between atoms: _85  and  _86
REMARK   37  A    between atoms: _85  and  _88
REMARK   38  A    between atoms: _88  and  _89
REMARK   39  A    between atoms: _92  and  _94
REMARK   40  A    between atoms: _94  and  _95
REMARK   41  A    between atoms: _94  and  _97
REMARK   42  A    between atoms: _100  and  _102
REMARK   43  A    between atoms: _102  and  _103
REMARK   44  A    between atoms: _102  and  _105
REMARK   45  A    between atoms: _105  and  _106
REMARK   46  A    between atoms: _106  and  _107
REMARK   47  A    between atoms: _107  and  _108
REMARK   48  A    between atoms: _108  and  _109
REMARK   49  A    between atoms: _113  and  _115
REMARK   50  A    between atoms: _115  and  _116
REMARK   51  A    between atoms: _115  and  _118
REMARK   52  A    between atoms: _118  and  _119
REMARK   53  A    between atoms: _119  and  _120
REMARK   54  A    between atoms: _122  and  _124
REMARK   55  A    between atoms: _124  and  _125
REMARK   56  A    between atoms: _124  and  _127
REMARK   57  A    between atoms: _127  and  _128
REMARK   58  A    between atoms: _131  and  _133
REMARK   59  A    between atoms: _133  and  _134
REMARK   60  A    between atoms: _136  and  _138
REMARK   61  A    between atoms: _138  and  _139
REMARK   62  A    between atoms: _141  and  _143
REMARK   63  A    between atoms: _143  and  _144
REMARK   64  A    between atoms: _143  and  _146
REMARK   65  A    between atoms: _146  and  _147
REMARK   66  A    between atoms: _150  and  _152
REMARK   67  A    between atoms: _152  and  _153
REMARK   68  A    between atoms: _155  and  _157
REMARK   69  A    between atoms: _157  and  _158
REMARK   70  A    between atoms: _160  and  _162
REMARK   71  A    between atoms: _162  and  _163
REMARK   72  A    between atoms: _162  and  _165
REMARK   73  A    between atoms: _165  and  _166
REMARK   74  A    between atoms: _172  and  _174
REMARK   75  A    between atoms: _174  and  _175
REMARK   76  A    between atoms: _174  and  _177
REMARK   77  A    between atoms: _177  and  _178
REMARK   78  A    between atoms: _181  and  _183
REMARK   79  A    between atoms: _183  and  _184
REMARK   80  A    between atoms: _183  and  _186
REMARK   81  A    between atoms: _189  and  _191
REMARK   82  A    between atoms: _191  and  _192
REMARK   83  A    between atoms: _191  and  _194
REMARK   84  A    between atoms: _194  and  _195
REMARK   85  A    between atoms: _198  and  _200
REMARK   86  A    between atoms: _200  and  _201
REMARK   87  A    between atoms: _200  and  _203
REMARK   88  A    between atoms: _203  and  _204
REMARK   89  A    between atoms: _208  and  _209
REMARK   90  A    between atoms: _214  and  _216
REMARK   91  A    between atoms: _216  and  _217
REMARK   92  A    between atoms: _216  and  _219
REMARK   93  A    between atoms: _219  and  _220
REMARK   94  A    between atoms: _223  and  _225
REMARK   95  A    between atoms: _225  and  _226
REMARK   96  A    between atoms: _225  and  _228
REMARK   97  A    between atoms: _228  and  _229
REMARK   98  A    between atoms: _234  and  _236
REMARK   99  A    between atoms: _236  and  _237
REMARK  100  A    between atoms: _236  and  _239
REMARK  101  A    between atoms: _242  and  _244
REMARK  102  A    between atoms: _244  and  _245
REMARK  103  A    between atoms: _244  and  _247
REMARK  104  A    between atoms: _247  and  _248
REMARK  105  A    between atoms: _251  and  _253
REMARK  106  A    between atoms: _253  and  _254
REMARK  107  A    between atoms: _256  and  _258
REMARK  108  A    between atoms: _258  and  _259
REMARK  109  A    between atoms: _258  and  _261
REMARK  110  A    between atoms: _261  and  _262
REMARK  111  A    between atoms: _262  and  _263
REMARK  112  A    between atoms: _263  and  _264
REMARK  113  A    between atoms: _273  and  _275
REMARK  114  A    between atoms: _275  and  _276
REMARK  115  A    between atoms: _275  and  _278
REMARK  116  A    between atoms: _278  and  _279
REMARK  117  A    between atoms: _284  and  _286
REMARK  118  A    between atoms: _286  and  _287
REMARK  119  A    between atoms: _286  and  _289
REMARK  120  A    between atoms: _289  and  _290
REMARK  121  A    between atoms: _290  and  _291
REMARK  122  A    between atoms: _291  and  _292
REMARK  123  A    between atoms: _301  and  _303
REMARK  124  A    between atoms: _303  and  _304
REMARK  125  A    between atoms: _303  and  _306
REMARK  126  A    between atoms: _306  and  _307
REMARK  127  A    between atoms: _310  and  _312
REMARK  128  A    between atoms: _312  and  _313
REMARK  129  A    between atoms: _316  and  _318
REMARK  130  A    between atoms: _318  and  _319
REMARK  131  A    between atoms: _318  and  _321
REMARK  132  A    between atoms: _321  and  _322
REMARK  133  A    between atoms: _325  and  _327
REMARK  134  A    between atoms: _327  and  _328
REMARK  135  A    between atoms: _327  and  _330
REMARK  136  A    between atoms: _330  and  _331
REMARK  137  A    between atoms: _334  and  _336
REMARK  138  A    between atoms: _336  and  _337
REMARK  139  A    between atoms: _336  and  _339
REMARK  140  A    between atoms: _339  and  _340
REMARK  141  A    between atoms: _343  and  _345
REMARK  142  A    between atoms: _345  and  _346
REMARK  143  A    between atoms: _345  and  _348
REMARK  144  A    between atoms: _348  and  _349
REMARK  145  A    between atoms: _352  and  _354
REMARK  146  A    between atoms: _354  and  _355
REMARK  147  A    between atoms: _357  and  _359
REMARK  148  A    between atoms: _359  and  _360
REMARK  149  A    between atoms: _363  and  _365
REMARK  150  A    between atoms: _365  and  _366
REMARK  151  A    between atoms: _365  and  _368
REMARK  152  A    between atoms: _368  and  _369
REMARK  153  A    between atoms: _372  and  _374
REMARK  154  A    between atoms: _374  and  _375
REMARK  155  A    between atoms: _374  and  _377
REMARK  156  A    between atoms: _377  and  _378
REMARK  157  A    between atoms: _381  and  _383
REMARK  158  A    between atoms: _383  and  _384
REMARK  159  A    between atoms: _383  and  _386
REMARK  160  A    between atoms: _386  and  _387
REMARK  161  A    between atoms: _390  and  _392
REMARK  162  A    between atoms: _392  and  _393
REMARK  163  A    between atoms: _392  and  _395
REMARK  164  A    between atoms: _398  and  _400
REMARK  165  A    between atoms: _400  and  _401
REMARK  166  A    between atoms: _400  and  _403
REMARK  167  A    between atoms: _403  and  _404
REMARK  168  A    between atoms: _404  and  _405
REMARK  169  A    between atoms: _408  and  _410
REMARK  170  A    between atoms: _410  and  _411
REMARK  171  A    between atoms: _410  and  _413
REMARK  172  A    between atoms: _413  and  _414
REMARK  173  A    between atoms: _414  and  _415
REMARK  174  A    between atoms: _415  and  _416
REMARK  175  A    between atoms: _416  and  _417
REMARK  176  A    between atoms: _421  and  _423
REMARK  177  A    between atoms: _423  and  _424
REMARK  178  A    between atoms: _423  and  _426
REMARK  179  A    between atoms: _426  and  _427
REMARK  180  A    between atoms: _427  and  _428
REMARK  181  A    between atoms: _430  and  _432
REMARK  182  A    between atoms: _432  and  _433
REMARK  183  A    between atoms: _432  and  _435
REMARK  184  A    between atoms: _435  and  _436
REMARK  185  A    between atoms: _439  and  _441
REMARK  186  A    between atoms: _441  and  _442
REMARK  187  A    between atoms: _444  and  _446
REMARK  188  A    between atoms: _446  and  _447
REMARK  189  A    between atoms: _449  and  _451
REMARK  190  A    between atoms: _451  and  _452
REMARK  191  A    between atoms: _451  and  _454
REMARK  192  A    between atoms: _454  and  _455
REMARK  193  A    between atoms: _458  and  _460
REMARK  194  A    between atoms: _460  and  _461
REMARK  195  A    between atoms: _463  and  _465
REMARK  196  A    between atoms: _465  and  _466
REMARK  197  A    between atoms: _468  and  _470
REMARK  198  A    between atoms: _470  and  _471
REMARK  199  A    between atoms: _470  and  _473
REMARK  200  A    between atoms: _473  and  _474
REMARK  201  A    between atoms: _480  and  _482
REMARK  202  A    between atoms: _482  and  _483
REMARK  203  A    between atoms: _482  and  _485
REMARK  204  A    between atoms: _485  and  _486
REMARK  205  A    between atoms: _489  and  _491
REMARK  206  A    between atoms: _491  and  _492
REMARK  207  A    between atoms: _491  and  _494
REMARK  208  A    between atoms: _497  and  _499
REMARK  209  A    between atoms: _499  and  _500
REMARK  210  A    between atoms: _499  and  _502
REMARK  211  A    between atoms: _502  and  _503
REMARK  212  A    between atoms: _506  and  _508
REMARK  213  A    between atoms: _508  and  _509
REMARK  214  A    between atoms: _508  and  _511
REMARK  215  A    between atoms: _511  and  _512
REMARK  216  A    between atoms: _516  and  _517
REMARK  217  A    between atoms: _522  and  _524
REMARK  218  A    between atoms: _524  and  _525
REMARK  219  A    between atoms: _524  and  _527
REMARK  220  A    between atoms: _527  and  _528
REMARK  221  A    between atoms: _531  and  _533
REMARK  222  A    between atoms: _533  and  _534
REMARK  223  A    between atoms: _533  and  _536
REMARK  224  A    between atoms: _536  and  _537
REMARK  225  A    between atoms: _542  and  _544
REMARK  226  A    between atoms: _544  and  _545
REMARK  227  A    between atoms: _544  and  _547
REMARK  228  A    between atoms: _550  and  _552
REMARK  229  A    between atoms: _552  and  _553
REMARK  230  A    between atoms: _552  and  _555
REMARK  231  A    between atoms: _555  and  _556
REMARK  232  A    between atoms: _559  and  _561
REMARK  233  A    between atoms: _561  and  _562
REMARK  234  A    between atoms: _564  and  _566
REMARK  235  A    between atoms: _566  and  _567
REMARK  236  A    between atoms: _566  and  _569
REMARK  237  A    between atoms: _569  and  _570
REMARK  238  A    between atoms: _570  and  _571
REMARK  239  A    between atoms: _571  and  _572
REMARK                            x       y       z     vdW  Elec       q    Type
REMARK                         _______ _______ _______ _____ _____    ______ ____
ROOT
ATOM      1  CA  LEU A   1      10.958  31.183  -6.220  0.00  0.00    +0.133 C 
ENDROOT
BRANCH   1   2
ATOM      2  N   LEU A   1      11.412  32.169  -5.245  0.00  0.00    -0.239 NA
ATOM      3  H   LEU A   1      10.836  33.021  -5.094  0.00  0.00    +0.142 HD
ENDBRANCH   1   2
BRANCH   1   4
ATOM      4  C   LEU A   1      11.544  31.502  -7.587  0.00  0.00    +0.224 C 
ATOM      5  O   LEU A   1      11.547  32.658  -8.015  0.00  0.00    -0.287 OA
ENDBRANCH   1   4
BRANCH   1   6
ATOM      6  CB  LEU A   1       9.427  31.197  -6.305  0.00  0.00    +0.025 C 
BRANCH   6   7
ATOM      7  CG  LEU A   1       8.677  30.741  -5.053  0.00  0.00    +0.002 C 
ATOM      8  CD2 LEU A   1       8.932  29.257  -4.825  0.00  0.00    +0.000 C 
ATOM      9  CD1 LEU A   1       7.185  31.010  -5.215  0.00  0.00    +0.000 C 
ENDBRANCH   6   7
ENDBRANCH   1   6
TORSDOF 4
REMARK  Name = ../refined-set-2016/4a6b/4a6b_pocket.pdb
REMARK  239 active torsions:
REMARK  status: ('A' for Active; 'I' for Inactive)
REMARK    1  A    between atoms: _1  and  _3
REMARK    2  A    between atoms: _3  and  _4
REMARK    3  A    between atoms: _3  and  _6
REMARK    4  A    between atoms: _6  and  _7
REMARK    5  A    between atoms: _7  and  _8
REMARK    6  A    between atoms: _8  and  _9
REMARK    7  A    between atoms: _18  and  _20
REMARK    8  A    between atoms: _20  and  _21
REMARK    9  A    between atoms: _20  and  _23
REMARK   10  A    between atoms: _23  and  _24
REMARK   11  A    between atoms: _27  and  _29
REMARK   12  A    between atoms: _29  and  _30
REMARK   13  A    between atoms: _29  and  _32
REMARK   14  A    between atoms: _32  and  _33
REMARK   15  A    between atoms: _36  and  _38
REMARK   16  A    between atoms: _38  and  _39
REMARK   17  A    between atoms: _38  and  _41
REMARK   18  A    between atoms: _41  and  _42
REMARK   19  A    between atoms: _45  and  _47
REMARK   20  A    between atoms: _47  and  _48
REMARK   21  A    between atoms: _47  and  _50
REMARK   22  A    between atoms: _50  and  _51
REMARK   23  A    between atoms: _54  and  _56
REMARK   24  A    between atoms: _56  and  _57
REMARK   25  A    between atoms: _59  and  _61
REMARK   26  A    between atoms: _61  and  _62
REMARK   27  A    between atoms: _65  and  _67
REMARK   28  A    between atoms: _67  and  _68
REMARK   29  A    between atoms: _67  and  _70
REMARK   30  A    between atoms: _70  and  _71
REMARK   31  A    between atoms: _74  and  _76
REMARK   32  A    between atoms: _76  and  _77
REMARK   33  A    between atoms: _76  and  _79
REMARK   34  A    between atoms: _79  and  _80
REMARK   35  A    between atoms: _83  and  _85
REMARK   36  A    between atoms: _85  and  _86
REMARK   37  A    between atoms: _85  and  _88
REMARK   38  A    between atoms: _88  and  _89
REMARK   39  A    between atoms: _92  and  _94
REMARK   40  A    between atoms: _94  and  _95
REMARK   41  A    between atoms: _94  and  _97
REMARK   42  A    between atoms: _100  and  _102
REMARK   43  A    between atoms: _102  and  _103
REMARK   44  A    between atoms: _102  and  _105
REMARK   45  A    between atoms: _105  and  _106
REMARK   46  A    between atoms: _106  and  _107
REMARK   47  A    between atoms: _107  and  _108
REMARK   48  A    between atoms: _108  and  _109
REMARK   49  A    between atoms: _113  and  _115
REMARK   50  A    between atoms: _115  and  _116
REMARK   51  A    between atoms: _115  and  _118
REMARK   52  A    between atoms: _118  and  _119
REMARK   53  A    between atoms: _119  and  _120
REMARK   54  A    between atoms: _122  and  _124
REMARK   55  A    between atoms: _124  and  _125
REMARK   56  A    between atoms: _124  and  _127
REMARK   57  A    between atoms: _127  and  _128
REMARK   58  A    between atoms: _131  and  _133
REMARK   59  A    between atoms: _133  and  _134
REMARK   60  A    between atoms: _136  and  _138
REMARK   61  A    between atoms: _138  and  _139
REMARK   62  A    between atoms: _141  and  _143
REMARK   63  A    between atoms: _143  and  _144
REMARK   64  A    between atoms: _143  and  _146
REMARK   65  A    between atoms: _146  and  _147
REMARK   66  A    between atoms: _150  and  _152
REMARK   67  A    between atoms: _152  and  _153
REMARK   68  A    between atoms: _155  and  _157
REMARK   69  A    between atoms: _157  and  _158
REMARK   70  A    between atoms: _160  and  _162
REMARK   71  A    between atoms: _162  and  _163
REMARK   72  A    between atoms: _162  and  _165
REMARK   73  A    between atoms: _165  and  _166
REMARK   74  A    between atoms: _172  and  _174
REMARK   75  A    between atoms: _174  and  _175
REMARK   76  A    between atoms: _174  and  _177
REMARK   77  A    between atoms: _177  and  _178
REMARK   78  A    between atoms: _181  and  _183
REMARK   79  A    between atoms: _183  and  _184
REMARK   80  A    between atoms: _183  and  _186
REMARK   81  A    between atoms: _189  and  _191
REMARK   82  A    between atoms: _191  and  _192
REMARK   83  A    between atoms: _191  and  _194
REMARK   84  A    between atoms: _194  and  _195
REMARK   85  A    between atoms: _198  and  _200
REMARK   86  A    between atoms: _200  and  _201
REMARK   87  A    between atoms: _200  and  _203
REMARK   88  A    between atoms: _203  and  _204
REMARK   89  A    between atoms: _208  and  _209
REMARK   90  A    between atoms: _214  and  _216
REMARK   91  A    between atoms: _216  and  _217
REMARK   92  A    between atoms: _216  and  _219
REMARK   93  A    between atoms: _219  and  _220
REMARK   94  A    between atoms: _223  and  _225
REMARK   95  A    between atoms: _225  and  _226
REMARK   96  A    between atoms: _225  and  _228
REMARK   97  A    between atoms: _228  and  _229
REMARK   98  A    between atoms: _234  and  _236
REMARK   99  A    between atoms: _236  and  _237
REMARK  100  A    between atoms: _236  and  _239
REMARK  101  A    between atoms: _242  and  _244
REMARK  102  A    between atoms: _244  and  _245
REMARK  103  A    between atoms: _244  and  _247
REMARK  104  A    between atoms: _247  and  _248
REMARK  105  A    between atoms: _251  and  _253
REMARK  106  A    between atoms: _253  and  _254
REMARK  107  A    between atoms: _256  and  _258
REMARK  108  A    between atoms: _258  and  _259
REMARK  109  A    between atoms: _258  and  _261
REMARK  110  A    between atoms: _261  and  _262
REMARK  111  A    between atoms: _262  and  _263
REMARK  112  A    between atoms: _263  and  _264
REMARK  113  A    between atoms: _273  and  _275
REMARK  114  A    between atoms: _275  and  _276
REMARK  115  A    between atoms: _275  and  _278
REMARK  116  A    between atoms: _278  and  _279
REMARK  117  A    between atoms: _284  and  _286
REMARK  118  A    between atoms: _286  and  _287
REMARK  119  A    between atoms: _286  and  _289
REMARK  120  A    between atoms: _289  and  _290
REMARK  121  A    between atoms: _290  and  _291
REMARK  122  A    between atoms: _291  and  _292
REMARK  123  A    between atoms: _301  and  _303
REMARK  124  A    between atoms: _303  and  _304
REMARK  125  A    between atoms: _303  and  _306
REMARK  126  A    between atoms: _306  and  _307
REMARK  127  A    between atoms: _310  and  _312
REMARK  128  A    between atoms: _312  and  _313
REMARK  129  A    between atoms: _316  and  _318
REMARK  130  A    between atoms: _318  and  _319
REMARK  131  A    between atoms: _318  and  _321
REMARK  132  A    between atoms: _321  and  _322
REMARK  133  A    between atoms: _325  and  _327
REMARK  134  A    between atoms: _327  and  _328
REMARK  135  A    between atoms: _327  and  _330
REMARK  136  A    between atoms: _330  and  _331
REMARK  137  A    between atoms: _334  and  _336
REMARK  138  A    between atoms: _336  and  _337
REMARK  139  A    between atoms: _336  and  _339
REMARK  140  A    between atoms: _339  and  _340
REMARK  141  A    between atoms: _343  and  _345
REMARK  142  A    between atoms: _345  and  _346
REMARK  143  A    between atoms: _345  and  _348
REMARK  144  A    between atoms: _348  and  _349
REMARK  145  A    between atoms: _352  and  _354
REMARK  146  A    between atoms: _354  and  _355
REMARK  147  A    between atoms: _357  and  _359
REMARK  148  A    between atoms: _359  and  _360
REMARK  149  A    between atoms: _363  and  _365
REMARK  150  A    between atoms: _365  and  _366
REMARK  151  A    between atoms: _365  and  _368
REMARK  152  A    between atoms: _368  and  _369
REMARK  153  A    between atoms: _372  and  _374
REMARK  154  A    between atoms: _374  and  _375
REMARK  155  A    between atoms: _374  and  _377
REMARK  156  A    between atoms: _377  and  _378
REMARK  157  A    between atoms: _381  and  _383
REMARK  158  A    between atoms: _383  and  _384
REMARK  159  A    between atoms: _383  and  _386
REMARK  160  A    between atoms: _386  and  _387
REMARK  161  A    between atoms: _390  and  _392
REMARK  162  A    between atoms: _392  and  _393
REMARK  163  A    between atoms: _392  and  _395
REMARK  164  A    between atoms: _398  and  _400
REMARK  165  A    between atoms: _400  and  _401
REMARK  166  A    between atoms: _400  and  _403
REMARK  167  A    between atoms: _403  and  _404
REMARK  168  A    between atoms: _404  and  _405
REMARK  169  A    between atoms: _408  and  _410
REMARK  170  A    between atoms: _410  and  _411
REMARK  171  A    between atoms: _410  and  _413
REMARK  172  A    between atoms: _413  and  _414
REMARK  173  A    between atoms: _414  and  _415
REMARK  174  A    between atoms: _415  and  _416
REMARK  175  A    between atoms: _416  and  _417
REMARK  176  A    between atoms: _421  and  _423
REMARK  177  A    between atoms: _423  and  _424
REMARK  178  A    between atoms: _423  and  _426
REMARK  179  A    between atoms: _426  and  _427
REMARK  180  A    between atoms: _427  and  _428
REMARK  181  A    between atoms: _430  and  _432
REMARK  182  A    between atoms: _432  and  _433
REMARK  183  A    between atoms: _432  and  _435
REMARK  184  A    between atoms: _435  and  _436
REMARK  185  A    between atoms: _439  and  _441
REMARK  186  A    between atoms: _441  and  _442
REMARK  187  A    between atoms: _444  and  _446
REMARK  188  A    between atoms: _446  and  _447
REMARK  189  A    between atoms: _449  and  _451
REMARK  190  A    between atoms: _451  and  _452
REMARK  191  A    between atoms: _451  and  _454
REMARK  192  A    between atoms: _454  and  _455
REMARK  193  A    between atoms: _458  and  _460
REMARK  194  A    between atoms: _460  and  _461
REMARK  195  A    between atoms: _463  and  _465
REMARK  196  A    between atoms: _465  and  _466
REMARK  197  A    between atoms: _468  and  _470
REMARK  198  A    between atoms: _470  and  _471
REMARK  199  A    between atoms: _470  and  _473
REMARK  200  A    between atoms: _473  and  _474
REMARK  201  A    between atoms: _480  and  _482
REMARK  202  A    between atoms: _482  and  _483
REMARK  203  A    between atoms: _482  and  _485
REMARK  204  A    between atoms: _485  and  _486
REMARK  205  A    between atoms: _489  and  _491
REMARK  206  A    between atoms: _491  and  _492
REMARK  207  A    between atoms: _491  and  _494
REMARK  208  A    between atoms: _497  and  _499
REMARK  209  A    between atoms: _499  and  _500
REMARK  210  A    between atoms: _499  and  _502
REMARK  211  A    between atoms: _502  and  _503
REMARK  212  A    between atoms: _506  and  _508
REMARK  213  A    between atoms: _508  and  _509
REMARK  214  A    between atoms: _508  and  _511
REMARK  215  A    between atoms: _511  and  _512
REMARK  216  A    between atoms: _516  and  _517
REMARK  217  A    between atoms: _522  and  _524
REMARK  218  A    between atoms: _524  and  _525
REMARK  219  A    between atoms: _524  and  _527
REMARK  220  A    between atoms: _527  and  _528
REMARK  221  A    between atoms: _531  and  _533
REMARK  222  A    between atoms: _533  and  _534
REMARK  223  A    between atoms: _533  and  _536
REMARK  224  A    between atoms: _536  and  _537
REMARK  225  A    between atoms: _542  and  _544
REMARK  226  A    between atoms: _544  and  _545
REMARK  227  A    between atoms: _544  and  _547
REMARK  228  A    between atoms: _550  and  _552
REMARK  229  A    between atoms: _552  and  _553
REMARK  230  A    between atoms: _552  and  _555
REMARK  231  A    between atoms: _555  and  _556
REMARK  232  A    between atoms: _559  and  _561
REMARK  233  A    between atoms: _561  and  _562
REMARK  234  A    between atoms: _564  and  _566
REMARK  235  A    between atoms: _566  and  _567
REMARK  236  A    between atoms: _566  and  _569
REMARK  237  A    between atoms: _569  and  _570
REMARK  238  A    between atoms: _570  and  _571
REMARK  239  A    between atoms: _571  and  _572
REMARK                            x       y       z     vdW  Elec       q    Type
REMARK                         _______ _______ _______ _____ _____    ______ ____
ROOT
ATOM      1  C   THR A   5      20.012  26.903   3.118  0.00  0.00    +0.243 C 
ATOM      2  N   GLY A   6      18.829  26.603   3.642  0.00  0.00    -0.295 N 
ATOM      3  H   GLY A   6      17.959  26.974   3.208  0.00  0.00    +0.150 HD
ATOM      4  O   THR A   5      21.071  26.492   3.594  0.00  0.00    -0.273 OA
ENDROOT
BRANCH   1   5
ATOM      5  CA  THR A   5      20.011  27.788   1.868  0.00  0.00    +0.176 C 
BRANCH   5   7
ATOM      6  C   ASP A   4      18.076  26.901   0.694  0.00  0.00    +0.241 C 
ATOM      7  N   THR A   5      18.692  27.934   1.265  0.00  0.00    -0.295 N 
ATOM      8  H   THR A   5      18.223  28.862   1.281  0.00  0.00    +0.150 HD
ATOM      9  O   ASP A   4      18.565  25.772   0.652  0.00  0.00    -0.273 OA
BRANCH   6  10
ATOM     10  CA  ASP A   4      16.700  27.169   0.093  0.00  0.00    +0.160 C 
BRANCH  10  13
ATOM     11  C   LEU A   3      16.234  28.460  -1.897  0.00  0.00    +0.241 C 
ATOM     12  O   LEU A   3      15.901  29.442  -1.237  0.00  0.00    -0.273 OA
ATOM     13  N   ASP A   4      16.678  27.336  -1.349  0.00  0.00    -0.297 N 
ATOM     14  H   ASP A   4      17.015  26.565  -1.960  0.00  0.00    +0.150 HD
BRANCH  11  15
ATOM     15  CA  LEU A   3      16.166  28.486  -3.415  0.00  0.00    +0.149 C 
BRANCH  15  18
ATOM     16  C   LEU A   2      13.995  27.413  -3.698  0.00  0.00    +0.241 C 
ATOM     17  O   LEU A   2      14.460  26.309  -3.427  0.00  0.00    -0.273 OA
ATOM     18  N   LEU A   3      14.735  28.521  -3.732  0.00  0.00    -0.297 N 
ATOM     19  H   LEU A   3      14.290  29.425  -3.988  0.00  0.00    +0.150 HD
BRANCH  16  20
ATOM     20  CA  LEU A   2      12.510  27.567  -4.010  0.00  0.00    +0.149 C 
BRANCH  20  22
ATOM     21  C   ALA A   1      11.853  26.980  -6.284  0.00  0.00    +0.238 C 
ATOM     22  N   LEU A   2      12.057  26.617  -5.022  0.00  0.00    -0.297 N 
ATOM     23  H   LEU A   2      11.889  25.628  -4.747  0.00  0.00    +0.150 HD
ATOM     24  O   ALA A   1      12.046  28.125  -6.694  0.00  0.00    -0.274 OA
BRANCH  21  25
ATOM     25  CA  ALA A   1      11.366  25.886  -7.222  0.00  0.00    +0.145 C 
ATOM     26  CB  ALA A   1      12.539  25.051  -7.713  0.00  0.00    +0.028 C 
BRANCH  25  27
ATOM     27  N   ALA A   1      10.635  26.434  -8.364  0.00  0.00    -0.238 NA
ATOM     28  H   ALA A   1      10.946  27.330  -8.792  0.00  0.00    +0.142 HD
ENDBRANCH  25  27
ENDBRANCH  21  25
ENDBRANCH  20  22
BRANCH  20  29
ATOM     29  CB  LEU A   2      11.707  27.364  -2.721  0.00  0.00    +0.029 C 
BRANCH  29  30
ATOM     30  CG  LEU A   2      11.956  28.311  -1.548  0.00  0.00    +0.002 C 
ATOM     31  CD2 LEU A   2      11.326  27.721  -0.297  0.00  0.00    +0.000 C 
ATOM     32  CD1 LEU A   2      11.338  29.670  -1.839  0.00  0.00    +0.000 C 
ENDBRANCH  29  30
ENDBRANCH  20  29
ENDBRANCH  16  20
ENDBRANCH  15  18
BRANCH  15  33
ATOM     33  CB  LEU A   3      16.862  29.733  -3.947  0.00  0.00    +0.029 C 
BRANCH  33  34
ATOM     34  CG  LEU A   3      16.667  29.937  -5.446  0.00  0.00    +0.002 C 
ATOM     35  CD2 LEU A   3      17.479  31.153  -5.887  0.00  0.00    +0.000 C 
ATOM     36  CD1 LEU A   3      17.118  28.700  -6.208  0.00  0.00    +0.000 C 
ENDBRANCH  33  34
ENDBRANCH  15  33
ENDBRANCH  11  15
ENDBRANCH  10  13
BRANCH  10  37
ATOM     37  CB  ASP A   4      15.753  26.029   0.455  0.00  0.00    +0.143 C 
BRANCH  37  38
ATOM     38  CG  ASP A   4      15.412  26.001   1.926  0.00  0.00    +0.367 C 
ATOM     39  OD2 ASP A   4      16.276  26.342   2.749  0.00  0.00    -0.246 OA
ATOM     40  OD1 ASP A   4      14.271  25.625   2.246  0.00  0.00    -0.246 OA
ENDBRANCH  37  38
ENDBRANCH  10  37
ENDBRANCH   6  10
ENDBRANCH   5   7
BRANCH   5  41
ATOM     41  CB  THR A   5      20.623  29.161   2.215  0.00  0.00    +0.137 C 
ATOM     42  CG2 THR A   5      20.789  29.997   0.955  0.00  0.00    +0.034 C 
BRANCH  41  43
ATOM     43  OG1 THR A   5      19.767  29.861   3.126  0.00  0.00    -0.382 OA
ATOM     44  HG1 THR A   5      19.665  29.330   3.955  0.00  0.00    +0.210 HD
ENDBRANCH  41  43
ENDBRANCH   5  41
ENDBRANCH   1   5
BRANCH   2  45
ATOM     45  CA  GLY A   6      18.749  25.756   4.822  0.00  0.00    +0.176 C 
BRANCH  45  46
ATOM     46  C   GLY A   6      18.702  24.273   4.492  0.00  0.00    +0.243 C 
ATOM     47  O   GLY A   6      18.724  23.424   5.389  0.00  0.00    -0.273 OA
ATOM     48  N   ALA A   7      18.643  23.955   3.204  0.00  0.00    -0.297 N 
ATOM     49  H   ALA A   7      18.634  24.715   2.494  0.00  0.00    +0.150 HD
BRANCH  48  50
ATOM     50  CA  ALA A   7      18.591  22.565   2.758  0.00  0.00    +0.149 C 
ATOM     51  CB  ALA A   7      17.548  22.421   1.660  0.00  0.00    +0.031 C 
BRANCH  50  52
ATOM     52  C   ALA A   7      19.938  22.068   2.244  0.00  0.00    +0.241 C 
ATOM     53  N   ASP A   8      20.395  20.921   2.744  0.00  0.00    -0.297 N 
ATOM     54  H   ASP A   8      19.846  20.419   3.471  0.00  0.00    +0.150 HD
ATOM     55  O   ALA A   7      20.558  22.715   1.403  0.00  0.00    -0.273 OA
BRANCH  53  56
ATOM     56  CA  ASP A   8      21.668  20.362   2.275  0.00  0.00    +0.160 C 
BRANCH  56  57
ATOM     57  C   ASP A   8      21.464  19.820   0.864  0.00  0.00    +0.241 C 
ATOM     58  N   ASP A   9      20.285  19.242   0.642  0.00  0.00    -0.297 N 
ATOM     59  H   ASP A   9      19.581  19.238   1.408  0.00  0.00    +0.150 HD
ATOM     60  O   ASP A   8      22.350  19.915   0.011  0.00  0.00    -0.273 OA
BRANCH  58  61
ATOM     61  CA  ASP A   9      19.937  18.613  -0.629  0.00  0.00    +0.160 C 
BRANCH  61  62
ATOM     62  C   ASP A   9      18.774  19.241  -1.386  0.00  0.00    +0.241 C 
ATOM     63  O   ASP A   9      18.043  20.084  -0.870  0.00  0.00    -0.273 OA
ATOM     64  N   THR A  10      18.600  18.776  -2.616  0.00  0.00    -0.295 N 
ATOM     65  H   THR A  10      19.247  18.043  -2.969  0.00  0.00    +0.150 HD
BRANCH  64  66
ATOM     66  CA  THR A  10      17.538  19.252  -3.492  0.00  0.00    +0.176 C 
BRANCH  66  67
ATOM     67  C   THR A  10      16.460  18.176  -3.544  0.00  0.00    +0.243 C 
ATOM     68  N   VAL A  11      15.228  18.557  -3.226  0.00  0.00    -0.298 N 
ATOM     69  H   VAL A  11      15.047  19.545  -2.958  0.00  0.00    +0.150 HD
ATOM     70  O   THR A  10      16.743  17.016  -3.848  0.00  0.00    -0.273 OA
BRANCH  68  71
ATOM     71  CA  VAL A  11      14.131  17.603  -3.250  0.00  0.00    +0.137 C 
BRANCH  71  72
ATOM     72  CB  VAL A  11      13.600  17.298  -1.827  0.00  0.00    +0.026 C 
ATOM     73  CG2 VAL A  11      12.989  18.522  -1.215  0.00  0.00    +0.002 C 
ATOM     74  CG1 VAL A  11      12.590  16.163  -1.886  0.00  0.00    +0.002 C 
ENDBRANCH  71  72
BRANCH  71  75
ATOM     75  C   VAL A  11      13.007  18.137  -4.119  0.00  0.00    +0.227 C 
ATOM     76  O   VAL A  11      12.560  19.269  -3.949  0.00  0.00    -0.286 OA
ENDBRANCH  71  75
ENDBRANCH  68  71
ENDBRANCH  66  67
BRANCH  66  77
ATOM     77  CB  THR A  10      18.109  19.519  -4.899  0.00  0.00    +0.137 C 
ATOM     78  CG2 THR A  10      17.002  19.849  -5.889  0.00  0.00    +0.034 C 
BRANCH  77  79
ATOM     79  OG1 THR A  10      19.023  20.622  -4.827  0.00  0.00    -0.382 OA
ATOM     80  HG1 THR A  10      19.759  20.399  -4.203  0.00  0.00    +0.210 HD
ENDBRANCH  77  79
ENDBRANCH  66  77
ENDBRANCH  64  66
ENDBRANCH  61  62
BRANCH  61  81
ATOM     81  CB  ASP A   9      19.601  17.133  -0.400  0.00  0.00    +0.143 C 
BRANCH  81  82
ATOM     82  CG  ASP A   9      20.655  16.406   0.408  0.00  0.00    +0.367 C 
ATOM     83  OD2 ASP A   9      20.287  15.760   1.413  0.00  0.00    -0.246 OA
ATOM     84  OD1 ASP A   9      21.839  16.479   0.038  0.00  0.00    -0.246 OA
ENDBRANCH  81  82
ENDBRANCH  61  81
ENDBRANCH  58  61
ENDBRANCH  56  57
BRANCH  56  85
ATOM     85  CB  ASP A   8      22.126  19.177   3.133  0.00  0.00    +0.143 C 
BRANCH  85  86
ATOM     86  CG  ASP A   8      22.655  19.582   4.499  0.00  0.00    +0.367 C 
ATOM     87  OD2 ASP A   8      23.073  18.665   5.237  0.00  0.00    -0.246 OA
ATOM     88  OD1 ASP A   8      22.655  20.781   4.845  0.00  0.00    -0.246 OA
ENDBRANCH  85  86
ENDBRANCH  56  85
ENDBRANCH  53  56
ENDBRANCH  50  52
ENDBRANCH  48  50
ENDBRANCH  45  46
ENDBRANCH   2  45
TORSDOF 37
REMARK  Name = ../refined-set-2016/4a6b/4a6b_pocket.pdb
REMARK  239 active torsions:
REMARK  status: ('A' for Active; 'I' for Inactive)
REMARK    1  A    between atoms: _1  and  _3
REMARK    2  A    between atoms: _3  and  _4
REMARK    3  A    between atoms: _3  and  _6
REMARK    4  A    between atoms: _6  and  _7
REMARK    5  A    between atoms: _7  and  _8
REMARK    6  A    between atoms: _8  and  _9
REMARK    7  A    between atoms: _18  and  _20
REMARK    8  A    between atoms: _20  and  _21
REMARK    9  A    between atoms: _20  and  _23
REMARK   10  A    between atoms: _23  and  _24
REMARK   11  A    between atoms: _27  and  _29
REMARK   12  A    between atoms: _29  and  _30
REMARK   13  A    between atoms: _29  and  _32
REMARK   14  A    between atoms: _32  and  _33
REMARK   15  A    between atoms: _36  and  _38
REMARK   16  A    between atoms: _38  and  _39
REMARK   17  A    between atoms: _38  and  _41
REMARK   18  A    between atoms: _41  and  _42
REMARK   19  A    between atoms: _45  and  _47
REMARK   20  A    between atoms: _47  and  _48
REMARK   21  A    between atoms: _47  and  _50
REMARK   22  A    between atoms: _50  and  _51
REMARK   23  A    between atoms: _54  and  _56
REMARK   24  A    between atoms: _56  and  _57
REMARK   25  A    between atoms: _59  and  _61
REMARK   26  A    between atoms: _61  and  _62
REMARK   27  A    between atoms: _65  and  _67
REMARK   28  A    between atoms: _67  and  _68
REMARK   29  A    between atoms: _67  and  _70
REMARK   30  A    between atoms: _70  and  _71
REMARK   31  A    between atoms: _74  and  _76
REMARK   32  A    between atoms: _76  and  _77
REMARK   33  A    between atoms: _76  and  _79
REMARK   34  A    between atoms: _79  and  _80
REMARK   35  A    between atoms: _83  and  _85
REMARK   36  A    between atoms: _85  and  _86
REMARK   37  A    between atoms: _85  and  _88
REMARK   38  A    between atoms: _88  and  _89
REMARK   39  A    between atoms: _92  and  _94
REMARK   40  A    between atoms: _94  and  _95
REMARK   41  A    between atoms: _94  and  _97
REMARK   42  A    between atoms: _100  and  _102
REMARK   43  A    between atoms: _102  and  _103
REMARK   44  A    between atoms: _102  and  _105
REMARK   45  A    between atoms: _105  and  _106
REMARK   46  A    between atoms: _106  and  _107
REMARK   47  A    between atoms: _107  and  _108
REMARK   48  A    between atoms: _108  and  _109
REMARK   49  A    between atoms: _113  and  _115
REMARK   50  A    between atoms: _115  and  _116
REMARK   51  A    between atoms: _115  and  _118
REMARK   52  A    between atoms: _118  and  _119
REMARK   53  A    between atoms: _119  and  _120
REMARK   54  A    between atoms: _122  and  _124
REMARK   55  A    between atoms: _124  and  _125
REMARK   56  A    between atoms: _124  and  _127
REMARK   57  A    between atoms: _127  and  _128
REMARK   58  A    between atoms: _131  and  _133
REMARK   59  A    between atoms: _133  and  _134
REMARK   60  A    between atoms: _136  and  _138
REMARK   61  A    between atoms: _138  and  _139
REMARK   62  A    between atoms: _141  and  _143
REMARK   63  A    between atoms: _143  and  _144
REMARK   64  A    between atoms: _143  and  _146
REMARK   65  A    between atoms: _146  and  _147
REMARK   66  A    between atoms: _150  and  _152
REMARK   67  A    between atoms: _152  and  _153
REMARK   68  A    between atoms: _155  and  _157
REMARK   69  A    between atoms: _157  and  _158
REMARK   70  A    between atoms: _160  and  _162
REMARK   71  A    between atoms: _162  and  _163
REMARK   72  A    between atoms: _162  and  _165
REMARK   73  A    between atoms: _165  and  _166
REMARK   74  A    between atoms: _172  and  _174
REMARK   75  A    between atoms: _174  and  _175
REMARK   76  A    between atoms: _174  and  _177
REMARK   77  A    between atoms: _177  and  _178
REMARK   78  A    between atoms: _181  and  _183
REMARK   79  A    between atoms: _183  and  _184
REMARK   80  A    between atoms: _183  and  _186
REMARK   81  A    between atoms: _189  and  _191
REMARK   82  A    between atoms: _191  and  _192
REMARK   83  A    between atoms: _191  and  _194
REMARK   84  A    between atoms: _194  and  _195
REMARK   85  A    between atoms: _198  and  _200
REMARK   86  A    between atoms: _200  and  _201
REMARK   87  A    between atoms: _200  and  _203
REMARK   88  A    between atoms: _203  and  _204
REMARK   89  A    between atoms: _208  and  _209
REMARK   90  A    between atoms: _214  and  _216
REMARK   91  A    between atoms: _216  and  _217
REMARK   92  A    between atoms: _216  and  _219
REMARK   93  A    between atoms: _219  and  _220
REMARK   94  A    between atoms: _223  and  _225
REMARK   95  A    between atoms: _225  and  _226
REMARK   96  A    between atoms: _225  and  _228
REMARK   97  A    between atoms: _228  and  _229
REMARK   98  A    between atoms: _234  and  _236
REMARK   99  A    between atoms: _236  and  _237
REMARK  100  A    between atoms: _236  and  _239
REMARK  101  A    between atoms: _242  and  _244
REMARK  102  A    between atoms: _244  and  _245
REMARK  103  A    between atoms: _244  and  _247
REMARK  104  A    between atoms: _247  and  _248
REMARK  105  A    between atoms: _251  and  _253
REMARK  106  A    between atoms: _253  and  _254
REMARK  107  A    between atoms: _256  and  _258
REMARK  108  A    between atoms: _258  and  _259
REMARK  109  A    between atoms: _258  and  _261
REMARK  110  A    between atoms: _261  and  _262
REMARK  111  A    between atoms: _262  and  _263
REMARK  112  A    between atoms: _263  and  _264
REMARK  113  A    between atoms: _273  and  _275
REMARK  114  A    between atoms: _275  and  _276
REMARK  115  A    between atoms: _275  and  _278
REMARK  116  A    between atoms: _278  and  _279
REMARK  117  A    between atoms: _284  and  _286
REMARK  118  A    between atoms: _286  and  _287
REMARK  119  A    between atoms: _286  and  _289
REMARK  120  A    between atoms: _289  and  _290
REMARK  121  A    between atoms: _290  and  _291
REMARK  122  A    between atoms: _291  and  _292
REMARK  123  A    between atoms: _301  and  _303
REMARK  124  A    between atoms: _303  and  _304
REMARK  125  A    between atoms: _303  and  _306
REMARK  126  A    between atoms: _306  and  _307
REMARK  127  A    between atoms: _310  and  _312
REMARK  128  A    between atoms: _312  and  _313
REMARK  129  A    between atoms: _316  and  _318
REMARK  130  A    between atoms: _318  and  _319
REMARK  131  A    between atoms: _318  and  _321
REMARK  132  A    between atoms: _321  and  _322
REMARK  133  A    between atoms: _325  and  _327
REMARK  134  A    between atoms: _327  and  _328
REMARK  135  A    between atoms: _327  and  _330
REMARK  136  A    between atoms: _330  and  _331
REMARK  137  A    between atoms: _334  and  _336
REMARK  138  A    between atoms: _336  and  _337
REMARK  139  A    between atoms: _336  and  _339
REMARK  140  A    between atoms: _339  and  _340
REMARK  141  A    between atoms: _343  and  _345
REMARK  142  A    between atoms: _345  and  _346
REMARK  143  A    between atoms: _345  and  _348
REMARK  144  A    between atoms: _348  and  _349
REMARK  145  A    between atoms: _352  and  _354
REMARK  146  A    between atoms: _354  and  _355
REMARK  147  A    between atoms: _357  and  _359
REMARK  148  A    between atoms: _359  and  _360
REMARK  149  A    between atoms: _363  and  _365
REMARK  150  A    between atoms: _365  and  _366
REMARK  151  A    between atoms: _365  and  _368
REMARK  152  A    between atoms: _368  and  _369
REMARK  153  A    between atoms: _372  and  _374
REMARK  154  A    between atoms: _374  and  _375
REMARK  155  A    between atoms: _374  and  _377
REMARK  156  A    between atoms: _377  and  _378
REMARK  157  A    between atoms: _381  and  _383
REMARK  158  A    between atoms: _383  and  _384
REMARK  159  A    between atoms: _383  and  _386
REMARK  160  A    between atoms: _386  and  _387
REMARK  161  A    between atoms: _390  and  _392
REMARK  162  A    between atoms: _392  and  _393
REMARK  163  A    between atoms: _392  and  _395
REMARK  164  A    between atoms: _398  and  _400
REMARK  165  A    between atoms: _400  and  _401
REMARK  166  A    between atoms: _400  and  _403
REMARK  167  A    between atoms: _403  and  _404
REMARK  168  A    between atoms: _404  and  _405
REMARK  169  A    between atoms: _408  and  _410
REMARK  170  A    between atoms: _410  and  _411
REMARK  171  A    between atoms: _410  and  _413
REMARK  172  A    between atoms: _413  and  _414
REMARK  173  A    between atoms: _414  and  _415
REMARK  174  A    between atoms: _415  and  _416
REMARK  175  A    between atoms: _416  and  _417
REMARK  176  A    between atoms: _421  and  _423
REMARK  177  A    between atoms: _423  and  _424
REMARK  178  A    between atoms: _423  and  _426
REMARK  179  A    between atoms: _426  and  _427
REMARK  180  A    between atoms: _427  and  _428
REMARK  181  A    between atoms: _430  and  _432
REMARK  182  A    between atoms: _432  and  _433
REMARK  183  A    between atoms: _432  and  _435
REMARK  184  A    between atoms: _435  and  _436
REMARK  185  A    between atoms: _439  and  _441
REMARK  186  A    between atoms: _441  and  _442
REMARK  187  A    between atoms: _444  and  _446
REMARK  188  A    between atoms: _446  and  _447
REMARK  189  A    between atoms: _449  and  _451
REMARK  190  A    between atoms: _451  and  _452
REMARK  191  A    between atoms: _451  and  _454
REMARK  192  A    between atoms: _454  and  _455
REMARK  193  A    between atoms: _458  and  _460
REMARK  194  A    between atoms: _460  and  _461
REMARK  195  A    between atoms: _463  and  _465
REMARK  196  A    between atoms: _465  and  _466
REMARK  197  A    between atoms: _468  and  _470
REMARK  198  A    between atoms: _470  and  _471
REMARK  199  A    between atoms: _470  and  _473
REMARK  200  A    between atoms: _473  and  _474
REMARK  201  A    between atoms: _480  and  _482
REMARK  202  A    between atoms: _482  and  _483
REMARK  203  A    between atoms: _482  and  _485
REMARK  204  A    between atoms: _485  and  _486
REMARK  205  A    between atoms: _489  and  _491
REMARK  206  A    between atoms: _491  and  _492
REMARK  207  A    between atoms: _491  and  _494
REMARK  208  A    between atoms: _497  and  _499
REMARK  209  A    between atoms: _499  and  _500
REMARK  210  A    between atoms: _499  and  _502
REMARK  211  A    between atoms: _502  and  _503
REMARK  212  A    between atoms: _506  and  _508
REMARK  213  A    between atoms: _508  and  _509
REMARK  214  A    between atoms: _508  and  _511
REMARK  215  A    between atoms: _511  and  _512
REMARK  216  A    between atoms: _516  and  _517
REMARK  217  A    between atoms: _522  and  _524
REMARK  218  A    between atoms: _524  and  _525
REMARK  219  A    between atoms: _524  and  _527
REMARK  220  A    between atoms: _527  and  _528
REMARK  221  A    between atoms: _531  and  _533
REMARK  222  A    between atoms: _533  and  _534
REMARK  223  A    between atoms: _533  and  _536
REMARK  224  A    between atoms: _536  and  _537
REMARK  225  A    between atoms: _542  and  _544
REMARK  226  A    between atoms: _544  and  _545
REMARK  227  A    between atoms: _544  and  _547
REMARK  228  A    between atoms: _550  and  _552
REMARK  229  A    between atoms: _552  and  _553
REMARK  230  A    between atoms: _552  and  _555
REMARK  231  A    between atoms: _555  and  _556
REMARK  232  A    between atoms: _559  and  _561
REMARK  233  A    between atoms: _561  and  _562
REMARK  234  A    between atoms: _564  and  _566
REMARK  235  A    between atoms: _566  and  _567
REMARK  236  A    between atoms: _566  and  _569
REMARK  237  A    between atoms: _569  and  _570
REMARK  238  A    between atoms: _570  and  _571
REMARK  239  A    between atoms: _571  and  _572
REMARK                            x       y       z     vdW  Elec       q    Type
REMARK                         _______ _______ _______ _____ _____    ______ ____
ROOT
ATOM      1  CA  GLU A   1       7.856  16.682  -6.107  0.00  0.00    +0.134 C 
ENDROOT
BRANCH   1   2
ATOM      2  N   GLU A   1       9.134  17.375  -6.181  0.00  0.00    -0.239 NA
ATOM      3  H   GLU A   1       9.150  18.348  -6.547  0.00  0.00    +0.142 HD
ENDBRANCH   1   2
BRANCH   1   4
ATOM      4  C   GLU A   1       7.891  15.523  -7.093  0.00  0.00    +0.224 C 
ATOM      5  O   GLU A   1       8.688  15.521  -8.038  0.00  0.00    -0.287 OA
ENDBRANCH   1   4
BRANCH   1   6
ATOM      6  CB  GLU A   1       6.726  17.656  -6.474  0.00  0.00    +0.037 C 
BRANCH   6   7
ATOM      7  CG  GLU A   1       6.557  18.800  -5.480  0.00  0.00    +0.116 C 
BRANCH   7   8
ATOM      8  CD  GLU A   1       5.807  19.998  -6.047  0.00  0.00    +0.365 C 
ATOM      9  OE2 GLU A   1       6.099  21.136  -5.623  0.00  0.00    -0.246 OA
ATOM     10  OE1 GLU A   1       4.919  19.809  -6.901  0.00  0.00    -0.246 OA
ENDBRANCH   7   8
ENDBRANCH   6   7
ENDBRANCH   1   6
TORSDOF 5
REMARK  Name = ../refined-set-2016/4a6b/4a6b_pocket.pdb
REMARK  239 active torsions:
REMARK  status: ('A' for Active; 'I' for Inactive)
REMARK    1  A    between atoms: _1  and  _3
REMARK    2  A    between atoms: _3  and  _4
REMARK    3  A    between atoms: _3  and  _6
REMARK    4  A    between atoms: _6  and  _7
REMARK    5  A    between atoms: _7  and  _8
REMARK    6  A    between atoms: _8  and  _9
REMARK    7  A    between atoms: _18  and  _20
REMARK    8  A    between atoms: _20  and  _21
REMARK    9  A    between atoms: _20  and  _23
REMARK   10  A    between atoms: _23  and  _24
REMARK   11  A    between atoms: _27  and  _29
REMARK   12  A    between atoms: _29  and  _30
REMARK   13  A    between atoms: _29  and  _32
REMARK   14  A    between atoms: _32  and  _33
REMARK   15  A    between atoms: _36  and  _38
REMARK   16  A    between atoms: _38  and  _39
REMARK   17  A    between atoms: _38  and  _41
REMARK   18  A    between atoms: _41  and  _42
REMARK   19  A    between atoms: _45  and  _47
REMARK   20  A    between atoms: _47  and  _48
REMARK   21  A    between atoms: _47  and  _50
REMARK   22  A    between atoms: _50  and  _51
REMARK   23  A    between atoms: _54  and  _56
REMARK   24  A    between atoms: _56  and  _57
REMARK   25  A    between atoms: _59  and  _61
REMARK   26  A    between atoms: _61  and  _62
REMARK   27  A    between atoms: _65  and  _67
REMARK   28  A    between atoms: _67  and  _68
REMARK   29  A    between atoms: _67  and  _70
REMARK   30  A    between atoms: _70  and  _71
REMARK   31  A    between atoms: _74  and  _76
REMARK   32  A    between atoms: _76  and  _77
REMARK   33  A    between atoms: _76  and  _79
REMARK   34  A    between atoms: _79  and  _80
REMARK   35  A    between atoms: _83  and  _85
REMARK   36  A    between atoms: _85  and  _86
REMARK   37  A    between atoms: _85  and  _88
REMARK   38  A    between atoms: _88  and  _89
REMARK   39  A    between atoms: _92  and  _94
REMARK   40  A    between atoms: _94  and  _95
REMARK   41  A    between atoms: _94  and  _97
REMARK   42  A    between atoms: _100  and  _102
REMARK   43  A    between atoms: _102  and  _103
REMARK   44  A    between atoms: _102  and  _105
REMARK   45  A    between atoms: _105  and  _106
REMARK   46  A    between atoms: _106  and  _107
REMARK   47  A    between atoms: _107  and  _108
REMARK   48  A    between atoms: _108  and  _109
REMARK   49  A    between atoms: _113  and  _115
REMARK   50  A    between atoms: _115  and  _116
REMARK   51  A    between atoms: _115  and  _118
REMARK   52  A    between atoms: _118  and  _119
REMARK   53  A    between atoms: _119  and  _120
REMARK   54  A    between atoms: _122  and  _124
REMARK   55  A    between atoms: _124  and  _125
REMARK   56  A    between atoms: _124  and  _127
REMARK   57  A    between atoms: _127  and  _128
REMARK   58  A    between atoms: _131  and  _133
REMARK   59  A    between atoms: _133  and  _134
REMARK   60  A    between atoms: _136  and  _138
REMARK   61  A    between atoms: _138  and  _139
REMARK   62  A    between atoms: _141  and  _143
REMARK   63  A    between atoms: _143  and  _144
REMARK   64  A    between atoms: _143  and  _146
REMARK   65  A    between atoms: _146  and  _147
REMARK   66  A    between atoms: _150  and  _152
REMARK   67  A    between atoms: _152  and  _153
REMARK   68  A    between atoms: _155  and  _157
REMARK   69  A    between atoms: _157  and  _158
REMARK   70  A    between atoms: _160  and  _162
REMARK   71  A    between atoms: _162  and  _163
REMARK   72  A    between atoms: _162  and  _165
REMARK   73  A    between atoms: _165  and  _166
REMARK   74  A    between atoms: _172  and  _174
REMARK   75  A    between atoms: _174  and  _175
REMARK   76  A    between atoms: _174  and  _177
REMARK   77  A    between atoms: _177  and  _178
REMARK   78  A    between atoms: _181  and  _183
REMARK   79  A    between atoms: _183  and  _184
REMARK   80  A    between atoms: _183  and  _186
REMARK   81  A    between atoms: _189  and  _191
REMARK   82  A    between atoms: _191  and  _192
REMARK   83  A    between atoms: _191  and  _194
REMARK   84  A    between atoms: _194  and  _195
REMARK   85  A    between atoms: _198  and  _200
REMARK   86  A    between atoms: _200  and  _201
REMARK   87  A    between atoms: _200  and  _203
REMARK   88  A    between atoms: _203  and  _204
REMARK   89  A    between atoms: _208  and  _209
REMARK   90  A    between atoms: _214  and  _216
REMARK   91  A    between atoms: _216  and  _217
REMARK   92  A    between atoms: _216  and  _219
REMARK   93  A    between atoms: _219  and  _220
REMARK   94  A    between atoms: _223  and  _225
REMARK   95  A    between atoms: _225  and  _226
REMARK   96  A    between atoms: _225  and  _228
REMARK   97  A    between atoms: _228  and  _229
REMARK   98  A    between atoms: _234  and  _236
REMARK   99  A    between atoms: _236  and  _237
REMARK  100  A    between atoms: _236  and  _239
REMARK  101  A    between atoms: _242  and  _244
REMARK  102  A    between atoms: _244  and  _245
REMARK  103  A    between atoms: _244  and  _247
REMARK  104  A    between atoms: _247  and  _248
REMARK  105  A    between atoms: _251  and  _253
REMARK  106  A    between atoms: _253  and  _254
REMARK  107  A    between atoms: _256  and  _258
REMARK  108  A    between atoms: _258  and  _259
REMARK  109  A    between atoms: _258  and  _261
REMARK  110  A    between atoms: _261  and  _262
REMARK  111  A    between atoms: _262  and  _263
REMARK  112  A    between atoms: _263  and  _264
REMARK  113  A    between atoms: _273  and  _275
REMARK  114  A    between atoms: _275  and  _276
REMARK  115  A    between atoms: _275  and  _278
REMARK  116  A    between atoms: _278  and  _279
REMARK  117  A    between atoms: _284  and  _286
REMARK  118  A    between atoms: _286  and  _287
REMARK  119  A    between atoms: _286  and  _289
REMARK  120  A    between atoms: _289  and  _290
REMARK  121  A    between atoms: _290  and  _291
REMARK  122  A    between atoms: _291  and  _292
REMARK  123  A    between atoms: _301  and  _303
REMARK  124  A    between atoms: _303  and  _304
REMARK  125  A    between atoms: _303  and  _306
REMARK  126  A    between atoms: _306  and  _307
REMARK  127  A    between atoms: _310  and  _312
REMARK  128  A    between atoms: _312  and  _313
REMARK  129  A    between atoms: _316  and  _318
REMARK  130  A    between atoms: _318  and  _319
REMARK  131  A    between atoms: _318  and  _321
REMARK  132  A    between atoms: _321  and  _322
REMARK  133  A    between atoms: _325  and  _327
REMARK  134  A    between atoms: _327  and  _328
REMARK  135  A    between atoms: _327  and  _330
REMARK  136  A    between atoms: _330  and  _331
REMARK  137  A    between atoms: _334  and  _336
REMARK  138  A    between atoms: _336  and  _337
REMARK  139  A    between atoms: _336  and  _339
REMARK  140  A    between atoms: _339  and  _340
REMARK  141  A    between atoms: _343  and  _345
REMARK  142  A    between atoms: _345  and  _346
REMARK  143  A    between atoms: _345  and  _348
REMARK  144  A    between atoms: _348  and  _349
REMARK  145  A    between atoms: _352  and  _354
REMARK  146  A    between atoms: _354  and  _355
REMARK  147  A    between atoms: _357  and  _359
REMARK  148  A    between atoms: _359  and  _360
REMARK  149  A    between atoms: _363  and  _365
REMARK  150  A    between atoms: _365  and  _366
REMARK  151  A    between atoms: _365  and  _368
REMARK  152  A    between atoms: _368  and  _369
REMARK  153  A    between atoms: _372  and  _374
REMARK  154  A    between atoms: _374  and  _375
REMARK  155  A    between atoms: _374  and  _377
REMARK  156  A    between atoms: _377  and  _378
REMARK  157  A    between atoms: _381  and  _383
REMARK  158  A    between atoms: _383  and  _384
REMARK  159  A    between atoms: _383  and  _386
REMARK  160  A    between atoms: _386  and  _387
REMARK  161  A    between atoms: _390  and  _392
REMARK  162  A    between atoms: _392  and  _393
REMARK  163  A    between atoms: _392  and  _395
REMARK  164  A    between atoms: _398  and  _400
REMARK  165  A    between atoms: _400  and  _401
REMARK  166  A    between atoms: _400  and  _403
REMARK  167  A    between atoms: _403  and  _404
REMARK  168  A    between atoms: _404  and  _405
REMARK  169  A    between atoms: _408  and  _410
REMARK  170  A    between atoms: _410  and  _411
REMARK  171  A    between atoms: _410  and  _413
REMARK  172  A    between atoms: _413  and  _414
REMARK  173  A    between atoms: _414  and  _415
REMARK  174  A    between atoms: _415  and  _416
REMARK  175  A    between atoms: _416  and  _417
REMARK  176  A    between atoms: _421  and  _423
REMARK  177  A    between atoms: _423  and  _424
REMARK  178  A    between atoms: _423  and  _426
REMARK  179  A    between atoms: _426  and  _427
REMARK  180  A    between atoms: _427  and  _428
REMARK  181  A    between atoms: _430  and  _432
REMARK  182  A    between atoms: _432  and  _433
REMARK  183  A    between atoms: _432  and  _435
REMARK  184  A    between atoms: _435  and  _436
REMARK  185  A    between atoms: _439  and  _441
REMARK  186  A    between atoms: _441  and  _442
REMARK  187  A    between atoms: _444  and  _446
REMARK  188  A    between atoms: _446  and  _447
REMARK  189  A    between atoms: _449  and  _451
REMARK  190  A    between atoms: _451  and  _452
REMARK  191  A    between atoms: _451  and  _454
REMARK  192  A    between atoms: _454  and  _455
REMARK  193  A    between atoms: _458  and  _460
REMARK  194  A    between atoms: _460  and  _461
REMARK  195  A    between atoms: _463  and  _465
REMARK  196  A    between atoms: _465  and  _466
REMARK  197  A    between atoms: _468  and  _470
REMARK  198  A    between atoms: _470  and  _471
REMARK  199  A    between atoms: _470  and  _473
REMARK  200  A    between atoms: _473  and  _474
REMARK  201  A    between atoms: _480  and  _482
REMARK  202  A    between atoms: _482  and  _483
REMARK  203  A    between atoms: _482  and  _485
REMARK  204  A    between atoms: _485  and  _486
REMARK  205  A    between atoms: _489  and  _491
REMARK  206  A    between atoms: _491  and  _492
REMARK  207  A    between atoms: _491  and  _494
REMARK  208  A    between atoms: _497  and  _499
REMARK  209  A    between atoms: _499  and  _500
REMARK  210  A    between atoms: _499  and  _502
REMARK  211  A    between atoms: _502  and  _503
REMARK  212  A    between atoms: _506  and  _508
REMARK  213  A    between atoms: _508  and  _509
REMARK  214  A    between atoms: _508  and  _511
REMARK  215  A    between atoms: _511  and  _512
REMARK  216  A    between atoms: _516  and  _517
REMARK  217  A    between atoms: _522  and  _524
REMARK  218  A    between atoms: _524  and  _525
REMARK  219  A    between atoms: _524  and  _527
REMARK  220  A    between atoms: _527  and  _528
REMARK  221  A    between atoms: _531  and  _533
REMARK  222  A    between atoms: _533  and  _534
REMARK  223  A    between atoms: _533  and  _536
REMARK  224  A    between atoms: _536  and  _537
REMARK  225  A    between atoms: _542  and  _544
REMARK  226  A    between atoms: _544  and  _545
REMARK  227  A    between atoms: _544  and  _547
REMARK  228  A    between atoms: _550  and  _552
REMARK  229  A    between atoms: _552  and  _553
REMARK  230  A    between atoms: _552  and  _555
REMARK  231  A    between atoms: _555  and  _556
REMARK  232  A    between atoms: _559  and  _561
REMARK  233  A    between atoms: _561  and  _562
REMARK  234  A    between atoms: _564  and  _566
REMARK  235  A    between atoms: _566  and  _567
REMARK  236  A    between atoms: _566  and  _569
REMARK  237  A    between atoms: _569  and  _570
REMARK  238  A    between atoms: _570  and  _571
REMARK  239  A    between atoms: _571  and  _572
REMARK                            x       y       z     vdW  Elec       q    Type
REMARK                         _______ _______ _______ _____ _____    ______ ____
ROOT
ATOM      1  C   GLY A   5      12.269  18.501   9.194  0.00  0.00    +0.243 C 
ATOM      2  O   GLY A   5      12.430  17.847  10.228  0.00  0.00    -0.273 OA
ATOM      3  N   ILE A   6      11.616  19.657   9.174  0.00  0.00    -0.297 N 
ATOM      4  H   ILE A   6      11.489  20.161   8.273  0.00  0.00    +0.150 HD
ENDROOT
BRANCH   3   5
ATOM      5  CA  ILE A   6      11.076  20.227  10.402  0.00  0.00    +0.149 C 
BRANCH   5   6
ATOM      6  C   ILE A   6      10.000  19.347  11.034  0.00  0.00    +0.241 C 
ATOM      7  O   ILE A   6       9.873  19.300  12.259  0.00  0.00    -0.273 OA
ATOM      8  N   GLY A   7       9.251  18.625  10.205  0.00  0.00    -0.295 N 
ATOM      9  H   GLY A   7       9.423  18.672   9.180  0.00  0.00    +0.150 HD
BRANCH   8  10
ATOM     10  CA  GLY A   7       8.193  17.770  10.720  0.00  0.00    +0.176 C 
BRANCH  10  11
ATOM     11  C   GLY A   7       8.548  16.310  10.951  0.00  0.00    +0.243 C 
ATOM     12  O   GLY A   7       7.747  15.561  11.513  0.00  0.00    -0.273 OA
ATOM     13  N   GLY A   8       9.738  15.894  10.532  0.00  0.00    -0.295 N 
ATOM     14  H   GLY A   8      10.389  16.562  10.072  0.00  0.00    +0.150 HD
BRANCH  13  15
ATOM     15  CA  GLY A   8      10.131  14.505  10.716  0.00  0.00    +0.176 C 
BRANCH  15  16
ATOM     16  C   GLY A   8      10.926  13.967   9.542  0.00  0.00    +0.243 C 
ATOM     17  N   PHE A   9      10.906  12.652   9.341  0.00  0.00    -0.297 N 
ATOM     18  H   PHE A   9      10.345  12.043   9.970  0.00  0.00    +0.150 HD
ATOM     19  O   GLY A   8      11.543  14.738   8.809  0.00  0.00    -0.273 OA
BRANCH  17  20
ATOM     20  CA  PHE A   9      11.665  12.055   8.244  0.00  0.00    +0.153 C 
BRANCH  20  21
ATOM     21  C   PHE A   9      10.807  11.470   7.126  0.00  0.00    +0.241 C 
ATOM     22  O   PHE A   9       9.714  10.957   7.365  0.00  0.00    -0.273 OA
ATOM     23  N   ILE A  10      11.303  11.559   5.896  0.00  0.00    -0.298 N 
ATOM     24  H   ILE A  10      12.215  12.034   5.743  0.00  0.00    +0.150 HD
BRANCH  23  25
ATOM     25  CA  ILE A  10      10.584  10.999   4.761  0.00  0.00    +0.137 C 
BRANCH  25  26
ATOM     26  C   ILE A  10      11.542  10.172   3.921  0.00  0.00    +0.227 C 
ATOM     27  O   ILE A  10      12.753  10.380   3.962  0.00  0.00    -0.286 OA
ENDBRANCH  25  26
BRANCH  25  28
ATOM     28  CB  ILE A  10       9.963  12.083   3.856  0.00  0.00    +0.026 C 
ATOM     29  CG2 ILE A  10       8.994  12.944   4.659  0.00  0.00    +0.002 C 
BRANCH  28  30
ATOM     30  CG1 ILE A  10      11.063  12.938   3.229  0.00  0.00    +0.002 C 
ATOM     31  CD1 ILE A  10      10.578  13.796   2.073  0.00  0.00    +0.000 C 
ENDBRANCH  28  30
ENDBRANCH  25  28
ENDBRANCH  23  25
ENDBRANCH  20  21
BRANCH  20  32
ATOM     32  CB  PHE A   9      12.590  10.959   8.784  0.00  0.00    +0.055 C 
BRANCH  32  33
ATOM     33  CG  PHE A   9      13.544  11.436   9.839  0.00  0.00    -0.020 A 
ATOM     34  CD2 PHE A   9      13.099  11.711  11.128  0.00  0.00    -0.004 A 
ATOM     35  CE2 PHE A   9      13.981  12.168  12.106  0.00  0.00    -0.000 A 
ATOM     36  CZ  PHE A   9      15.323  12.352  11.798  0.00  0.00    -0.000 A 
ATOM     37  CE1 PHE A   9      15.776  12.079  10.513  0.00  0.00    -0.000 A 
ATOM     38  CD1 PHE A   9      14.888  11.623   9.543  0.00  0.00    -0.004 A 
ENDBRANCH  32  33
ENDBRANCH  20  32
ENDBRANCH  17  20
ENDBRANCH  15  16
ENDBRANCH  13  15
ENDBRANCH  10  11
ENDBRANCH   8  10
ENDBRANCH   5   6
BRANCH   5  39
ATOM     39  CB  ILE A   6      10.507  21.645  10.149  0.00  0.00    +0.027 C 
ATOM     40  CG2 ILE A   6       9.956  22.236  11.435  0.00  0.00    +0.002 C 
BRANCH  39  41
ATOM     41  CG1 ILE A   6      11.618  22.549   9.608  0.00  0.00    +0.002 C 
ATOM     42  CD1 ILE A   6      12.810  22.682  10.535  0.00  0.00    +0.000 C 
ENDBRANCH  39  41
ENDBRANCH   5  39
ENDBRANCH   3   5
BRANCH   1  43
ATOM     43  CA  GLY A   5      12.811  17.989   7.870  0.00  0.00    +0.176 C 
BRANCH  43  45
ATOM     44  C   GLY A   4      14.553  16.304   7.763  0.00  0.00    +0.243 C 
ATOM     45  N   GLY A   5      13.293  16.632   8.040  0.00  0.00    -0.295 N 
ATOM     46  H   GLY A   5      12.641  15.900   8.386  0.00  0.00    +0.150 HD
ATOM     47  O   GLY A   4      15.379  17.105   7.327  0.00  0.00    -0.273 OA
BRANCH  44  48
ATOM     48  CA  GLY A   4      14.931  14.857   8.002  0.00  0.00    +0.176 C 
BRANCH  48  50
ATOM     49  C   ILE A   3      15.165  13.418   6.081  0.00  0.00    +0.241 C 
ATOM     50  N   GLY A   4      15.709  14.299   6.914  0.00  0.00    -0.295 N 
ATOM     51  H   GLY A   4      16.699  14.590   6.784  0.00  0.00    +0.150 HD
ATOM     52  O   ILE A   3      14.005  13.025   6.181  0.00  0.00    -0.273 OA
BRANCH  49  53
ATOM     53  CA  ILE A   3      16.065  12.893   4.974  0.00  0.00    +0.149 C 
BRANCH  53  56
ATOM     54  C   MET A   2      16.553  10.531   4.725  0.00  0.00    +0.241 C 
ATOM     55  O   MET A   2      17.717  10.692   5.093  0.00  0.00    -0.273 OA
ATOM     56  N   ILE A   3      15.685  11.531   4.624  0.00  0.00    -0.297 N 
ATOM     57  H   ILE A   3      14.719  11.339   4.290  0.00  0.00    +0.150 HD
BRANCH  54  58
ATOM     58  CA  MET A   2      16.052   9.148   4.344  0.00  0.00    +0.149 C 
BRANCH  58  60
ATOM     59  C   LYS A   1      16.575   8.414   2.068  0.00  0.00    +0.238 C 
ATOM     60  N   MET A   2      16.959   8.668   3.311  0.00  0.00    -0.297 N 
ATOM     61  H   MET A   2      17.957   8.517   3.561  0.00  0.00    +0.150 HD
ATOM     62  O   LYS A   1      15.414   8.510   1.676  0.00  0.00    -0.274 OA
BRANCH  59  63
ATOM     63  CA  LYS A   1      17.676   7.953   1.141  0.00  0.00    +0.145 C 
BRANCH  63  64
ATOM     64  N   LYS A   1      17.135   6.972   0.218  0.00  0.00    -0.238 NA
ATOM     65  H   LYS A   1      16.117   6.977   0.003  0.00  0.00    +0.142 HD
ENDBRANCH  63  64
BRANCH  63  66
ATOM     66  CB  LYS A   1      18.285   9.163   0.422  0.00  0.00    +0.026 C 
BRANCH  66  67
ATOM     67  CG  LYS A   1      19.024  10.088   1.401  0.00  0.00    -0.000 C 
BRANCH  67  68
ATOM     68  CD  LYS A   1      19.916  11.118   0.728  0.00  0.00    -0.024 C 
BRANCH  68  69
ATOM     69  CE  LYS A   1      20.608  11.975   1.788  0.00  0.00    -0.086 C 
BRANCH  69  70
ATOM     70  NZ  LYS A   1      21.630  12.893   1.222  0.00  0.00    +0.380 N 
ATOM     71  HZ1 LYS A   1      22.062  13.445   1.990  0.00  0.00    -0.089 HD
ATOM     72  HZ2 LYS A   1      22.364  12.337   0.738  0.00  0.00    -0.089 HD
ATOM     73  HZ3 LYS A   1      21.177  13.537   0.543  0.00  0.00    -0.089 HD
ENDBRANCH  69  70
ENDBRANCH  68  69
ENDBRANCH  67  68
ENDBRANCH  66  67
ENDBRANCH  63  66
ENDBRANCH  59  63
ENDBRANCH  58  60
BRANCH  58  74
ATOM     74  CB  MET A   2      16.106   8.232   5.572  0.00  0.00    +0.041 C 
BRANCH  74  75
ATOM     75  CG  MET A   2      15.048   7.136   5.620  0.00  0.00    +0.060 C 
BRANCH  75  76
ATOM     76  SD  MET A   2      13.418   7.758   6.114  0.00  0.00    -0.139 S 
ATOM     77  CE  MET A   2      13.531   7.603   7.890  0.00  0.00    +0.069 C 
ENDBRANCH  75  76
ENDBRANCH  74  75
ENDBRANCH  58  74
ENDBRANCH  54  58
ENDBRANCH  53  56
BRANCH  53  78
ATOM     78  CB  ILE A   3      15.965  13.837   3.756  0.00  0.00    +0.027 C 
ATOM     79  CG2 ILE A   3      16.932  13.372   2.663  0.00  0.00    +0.002 C 
BRANCH  78  80
ATOM     80  CG1 ILE A   3      14.530  13.867   3.228  0.00  0.00    +0.002 C 
ATOM     81  CD1 ILE A   3      14.323  14.786   2.015  0.00  0.00    +0.000 C 
ENDBRANCH  78  80
ENDBRANCH  53  78
ENDBRANCH  49  53
ENDBRANCH  48  50
ENDBRANCH  44  48
ENDBRANCH  43  45
ENDBRANCH   1  43
TORSDOF 36
REMARK  Name = ../refined-set-2016/4a6b/4a6b_pocket.pdb
REMARK  239 active torsions:
REMARK  status: ('A' for Active; 'I' for Inactive)
REMARK    1  A    between atoms: _1  and  _3
REMARK    2  A    between atoms: _3  and  _4
REMARK    3  A    between atoms: _3  and  _6
REMARK    4  A    between atoms: _6  and  _7
REMARK    5  A    between atoms: _7  and  _8
REMARK    6  A    between atoms: _8  and  _9
REMARK    7  A    between atoms: _18  and  _20
REMARK    8  A    between atoms: _20  and  _21
REMARK    9  A    between atoms: _20  and  _23
REMARK   10  A    between atoms: _23  and  _24
REMARK   11  A    between atoms: _27  and  _29
REMARK   12  A    between atoms: _29  and  _30
REMARK   13  A    between atoms: _29  and  _32
REMARK   14  A    between atoms: _32  and  _33
REMARK   15  A    between atoms: _36  and  _38
REMARK   16  A    between atoms: _38  and  _39
REMARK   17  A    between atoms: _38  and  _41
REMARK   18  A    between atoms: _41  and  _42
REMARK   19  A    between atoms: _45  and  _47
REMARK   20  A    between atoms: _47  and  _48
REMARK   21  A    between atoms: _47  and  _50
REMARK   22  A    between atoms: _50  and  _51
REMARK   23  A    between atoms: _54  and  _56
REMARK   24  A    between atoms: _56  and  _57
REMARK   25  A    between atoms: _59  and  _61
REMARK   26  A    between atoms: _61  and  _62
REMARK   27  A    between atoms: _65  and  _67
REMARK   28  A    between atoms: _67  and  _68
REMARK   29  A    between atoms: _67  and  _70
REMARK   30  A    between atoms: _70  and  _71
REMARK   31  A    between atoms: _74  and  _76
REMARK   32  A    between atoms: _76  and  _77
REMARK   33  A    between atoms: _76  and  _79
REMARK   34  A    between atoms: _79  and  _80
REMARK   35  A    between atoms: _83  and  _85
REMARK   36  A    between atoms: _85  and  _86
REMARK   37  A    between atoms: _85  and  _88
REMARK   38  A    between atoms: _88  and  _89
REMARK   39  A    between atoms: _92  and  _94
REMARK   40  A    between atoms: _94  and  _95
REMARK   41  A    between atoms: _94  and  _97
REMARK   42  A    between atoms: _100  and  _102
REMARK   43  A    between atoms: _102  and  _103
REMARK   44  A    between atoms: _102  and  _105
REMARK   45  A    between atoms: _105  and  _106
REMARK   46  A    between atoms: _106  and  _107
REMARK   47  A    between atoms: _107  and  _108
REMARK   48  A    between atoms: _108  and  _109
REMARK   49  A    between atoms: _113  and  _115
REMARK   50  A    between atoms: _115  and  _116
REMARK   51  A    between atoms: _115  and  _118
REMARK   52  A    between atoms: _118  and  _119
REMARK   53  A    between atoms: _119  and  _120
REMARK   54  A    between atoms: _122  and  _124
REMARK   55  A    between atoms: _124  and  _125
REMARK   56  A    between atoms: _124  and  _127
REMARK   57  A    between atoms: _127  and  _128
REMARK   58  A    between atoms: _131  and  _133
REMARK   59  A    between atoms: _133  and  _134
REMARK   60  A    between atoms: _136  and  _138
REMARK   61  A    between atoms: _138  and  _139
REMARK   62  A    between atoms: _141  and  _143
REMARK   63  A    between atoms: _143  and  _144
REMARK   64  A    between atoms: _143  and  _146
REMARK   65  A    between atoms: _146  and  _147
REMARK   66  A    between atoms: _150  and  _152
REMARK   67  A    between atoms: _152  and  _153
REMARK   68  A    between atoms: _155  and  _157
REMARK   69  A    between atoms: _157  and  _158
REMARK   70  A    between atoms: _160  and  _162
REMARK   71  A    between atoms: _162  and  _163
REMARK   72  A    between atoms: _162  and  _165
REMARK   73  A    between atoms: _165  and  _166
REMARK   74  A    between atoms: _172  and  _174
REMARK   75  A    between atoms: _174  and  _175
REMARK   76  A    between atoms: _174  and  _177
REMARK   77  A    between atoms: _177  and  _178
REMARK   78  A    between atoms: _181  and  _183
REMARK   79  A    between atoms: _183  and  _184
REMARK   80  A    between atoms: _183  and  _186
REMARK   81  A    between atoms: _189  and  _191
REMARK   82  A    between atoms: _191  and  _192
REMARK   83  A    between atoms: _191  and  _194
REMARK   84  A    between atoms: _194  and  _195
REMARK   85  A    between atoms: _198  and  _200
REMARK   86  A    between atoms: _200  and  _201
REMARK   87  A    between atoms: _200  and  _203
REMARK   88  A    between atoms: _203  and  _204
REMARK   89  A    between atoms: _208  and  _209
REMARK   90  A    between atoms: _214  and  _216
REMARK   91  A    between atoms: _216  and  _217
REMARK   92  A    between atoms: _216  and  _219
REMARK   93  A    between atoms: _219  and  _220
REMARK   94  A    between atoms: _223  and  _225
REMARK   95  A    between atoms: _225  and  _226
REMARK   96  A    between atoms: _225  and  _228
REMARK   97  A    between atoms: _228  and  _229
REMARK   98  A    between atoms: _234  and  _236
REMARK   99  A    between atoms: _236  and  _237
REMARK  100  A    between atoms: _236  and  _239
REMARK  101  A    between atoms: _242  and  _244
REMARK  102  A    between atoms: _244  and  _245
REMARK  103  A    between atoms: _244  and  _247
REMARK  104  A    between atoms: _247  and  _248
REMARK  105  A    between atoms: _251  and  _253
REMARK  106  A    between atoms: _253  and  _254
REMARK  107  A    between atoms: _256  and  _258
REMARK  108  A    between atoms: _258  and  _259
REMARK  109  A    between atoms: _258  and  _261
REMARK  110  A    between atoms: _261  and  _262
REMARK  111  A    between atoms: _262  and  _263
REMARK  112  A    between atoms: _263  and  _264
REMARK  113  A    between atoms: _273  and  _275
REMARK  114  A    between atoms: _275  and  _276
REMARK  115  A    between atoms: _275  and  _278
REMARK  116  A    between atoms: _278  and  _279
REMARK  117  A    between atoms: _284  and  _286
REMARK  118  A    between atoms: _286  and  _287
REMARK  119  A    between atoms: _286  and  _289
REMARK  120  A    between atoms: _289  and  _290
REMARK  121  A    between atoms: _290  and  _291
REMARK  122  A    between atoms: _291  and  _292
REMARK  123  A    between atoms: _301  and  _303
REMARK  124  A    between atoms: _303  and  _304
REMARK  125  A    between atoms: _303  and  _306
REMARK  126  A    between atoms: _306  and  _307
REMARK  127  A    between atoms: _310  and  _312
REMARK  128  A    between atoms: _312  and  _313
REMARK  129  A    between atoms: _316  and  _318
REMARK  130  A    between atoms: _318  and  _319
REMARK  131  A    between atoms: _318  and  _321
REMARK  132  A    between atoms: _321  and  _322
REMARK  133  A    between atoms: _325  and  _327
REMARK  134  A    between atoms: _327  and  _328
REMARK  135  A    between atoms: _327  and  _330
REMARK  136  A    between atoms: _330  and  _331
REMARK  137  A    between atoms: _334  and  _336
REMARK  138  A    between atoms: _336  and  _337
REMARK  139  A    between atoms: _336  and  _339
REMARK  140  A    between atoms: _339  and  _340
REMARK  141  A    between atoms: _343  and  _345
REMARK  142  A    between atoms: _345  and  _346
REMARK  143  A    between atoms: _345  and  _348
REMARK  144  A    between atoms: _348  and  _349
REMARK  145  A    between atoms: _352  and  _354
REMARK  146  A    between atoms: _354  and  _355
REMARK  147  A    between atoms: _357  and  _359
REMARK  148  A    between atoms: _359  and  _360
REMARK  149  A    between atoms: _363  and  _365
REMARK  150  A    between atoms: _365  and  _366
REMARK  151  A    between atoms: _365  and  _368
REMARK  152  A    between atoms: _368  and  _369
REMARK  153  A    between atoms: _372  and  _374
REMARK  154  A    between atoms: _374  and  _375
REMARK  155  A    between atoms: _374  and  _377
REMARK  156  A    between atoms: _377  and  _378
REMARK  157  A    between atoms: _381  and  _383
REMARK  158  A    between atoms: _383  and  _384
REMARK  159  A    between atoms: _383  and  _386
REMARK  160  A    between atoms: _386  and  _387
REMARK  161  A    between atoms: _390  and  _392
REMARK  162  A    between atoms: _392  and  _393
REMARK  163  A    between atoms: _392  and  _395
REMARK  164  A    between atoms: _398  and  _400
REMARK  165  A    between atoms: _400  and  _401
REMARK  166  A    between atoms: _400  and  _403
REMARK  167  A    between atoms: _403  and  _404
REMARK  168  A    between atoms: _404  and  _405
REMARK  169  A    between atoms: _408  and  _410
REMARK  170  A    between atoms: _410  and  _411
REMARK  171  A    between atoms: _410  and  _413
REMARK  172  A    between atoms: _413  and  _414
REMARK  173  A    between atoms: _414  and  _415
REMARK  174  A    between atoms: _415  and  _416
REMARK  175  A    between atoms: _416  and  _417
REMARK  176  A    between atoms: _421  and  _423
REMARK  177  A    between atoms: _423  and  _424
REMARK  178  A    between atoms: _423  and  _426
REMARK  179  A    between atoms: _426  and  _427
REMARK  180  A    between atoms: _427  and  _428
REMARK  181  A    between atoms: _430  and  _432
REMARK  182  A    between atoms: _432  and  _433
REMARK  183  A    between atoms: _432  and  _435
REMARK  184  A    between atoms: _435  and  _436
REMARK  185  A    between atoms: _439  and  _441
REMARK  186  A    between atoms: _441  and  _442
REMARK  187  A    between atoms: _444  and  _446
REMARK  188  A    between atoms: _446  and  _447
REMARK  189  A    between atoms: _449  and  _451
REMARK  190  A    between atoms: _451  and  _452
REMARK  191  A    between atoms: _451  and  _454
REMARK  192  A    between atoms: _454  and  _455
REMARK  193  A    between atoms: _458  and  _460
REMARK  194  A    between atoms: _460  and  _461
REMARK  195  A    between atoms: _463  and  _465
REMARK  196  A    between atoms: _465  and  _466
REMARK  197  A    between atoms: _468  and  _470
REMARK  198  A    between atoms: _470  and  _471
REMARK  199  A    between atoms: _470  and  _473
REMARK  200  A    between atoms: _473  and  _474
REMARK  201  A    between atoms: _480  and  _482
REMARK  202  A    between atoms: _482  and  _483
REMARK  203  A    between atoms: _482  and  _485
REMARK  204  A    between atoms: _485  and  _486
REMARK  205  A    between atoms: _489  and  _491
REMARK  206  A    between atoms: _491  and  _492
REMARK  207  A    between atoms: _491  and  _494
REMARK  208  A    between atoms: _497  and  _499
REMARK  209  A    between atoms: _499  and  _500
REMARK  210  A    between atoms: _499  and  _502
REMARK  211  A    between atoms: _502  and  _503
REMARK  212  A    between atoms: _506  and  _508
REMARK  213  A    between atoms: _508  and  _509
REMARK  214  A    between atoms: _508  and  _511
REMARK  215  A    between atoms: _511  and  _512
REMARK  216  A    between atoms: _516  and  _517
REMARK  217  A    between atoms: _522  and  _524
REMARK  218  A    between atoms: _524  and  _525
REMARK  219  A    between atoms: _524  and  _527
REMARK  220  A    between atoms: _527  and  _528
REMARK  221  A    between atoms: _531  and  _533
REMARK  222  A    between atoms: _533  and  _534
REMARK  223  A    between atoms: _533  and  _536
REMARK  224  A    between atoms: _536  and  _537
REMARK  225  A    between atoms: _542  and  _544
REMARK  226  A    between atoms: _544  and  _545
REMARK  227  A    between atoms: _544  and  _547
REMARK  228  A    between atoms: _550  and  _552
REMARK  229  A    between atoms: _552  and  _553
REMARK  230  A    between atoms: _552  and  _555
REMARK  231  A    between atoms: _555  and  _556
REMARK  232  A    between atoms: _559  and  _561
REMARK  233  A    between atoms: _561  and  _562
REMARK  234  A    between atoms: _564  and  _566
REMARK  235  A    between atoms: _566  and  _567
REMARK  236  A    between atoms: _566  and  _569
REMARK  237  A    between atoms: _569  and  _570
REMARK  238  A    between atoms: _570  and  _571
REMARK  239  A    between atoms: _571  and  _572
REMARK                            x       y       z     vdW  Elec       q    Type
REMARK                         _______ _______ _______ _____ _____    ______ ____
ROOT
ATOM      1  CA  VAL A   1      12.971   9.675  -1.063  0.00  0.00    +0.133 C 
ENDROOT
BRANCH   1   2
ATOM      2  CB  VAL A   1      13.616  11.097  -1.046  0.00  0.00    +0.023 C 
ATOM      3  CG2 VAL A   1      12.820  12.022  -0.139  0.00  0.00    +0.002 C 
ATOM      4  CG1 VAL A   1      15.069  11.012  -0.594  0.00  0.00    +0.002 C 
ENDBRANCH   1   2
BRANCH   1   5
ATOM      5  N   VAL A   1      12.910   9.091   0.272  0.00  0.00    -0.239 NA
ATOM      6  H   VAL A   1      13.781   8.734   0.714  0.00  0.00    +0.142 HD
ENDBRANCH   1   5
BRANCH   1   7
ATOM      7  C   VAL A   1      13.773   8.801  -2.027  0.00  0.00    +0.224 C 
ATOM      8  O   VAL A   1      14.505   7.898  -1.605  0.00  0.00    -0.287 OA
ENDBRANCH   1   7
TORSDOF 3
REMARK  Name = ../refined-set-2016/4a6b/4a6b_pocket.pdb
REMARK  239 active torsions:
REMARK  status: ('A' for Active; 'I' for Inactive)
REMARK    1  A    between atoms: _1  and  _3
REMARK    2  A    between atoms: _3  and  _4
REMARK    3  A    between atoms: _3  and  _6
REMARK    4  A    between atoms: _6  and  _7
REMARK    5  A    between atoms: _7  and  _8
REMARK    6  A    between atoms: _8  and  _9
REMARK    7  A    between atoms: _18  and  _20
REMARK    8  A    between atoms: _20  and  _21
REMARK    9  A    between atoms: _20  and  _23
REMARK   10  A    between atoms: _23  and  _24
REMARK   11  A    between atoms: _27  and  _29
REMARK   12  A    between atoms: _29  and  _30
REMARK   13  A    between atoms: _29  and  _32
REMARK   14  A    between atoms: _32  and  _33
REMARK   15  A    between atoms: _36  and  _38
REMARK   16  A    between atoms: _38  and  _39
REMARK   17  A    between atoms: _38  and  _41
REMARK   18  A    between atoms: _41  and  _42
REMARK   19  A    between atoms: _45  and  _47
REMARK   20  A    between atoms: _47  and  _48
REMARK   21  A    between atoms: _47  and  _50
REMARK   22  A    between atoms: _50  and  _51
REMARK   23  A    between atoms: _54  and  _56
REMARK   24  A    between atoms: _56  and  _57
REMARK   25  A    between atoms: _59  and  _61
REMARK   26  A    between atoms: _61  and  _62
REMARK   27  A    between atoms: _65  and  _67
REMARK   28  A    between atoms: _67  and  _68
REMARK   29  A    between atoms: _67  and  _70
REMARK   30  A    between atoms: _70  and  _71
REMARK   31  A    between atoms: _74  and  _76
REMARK   32  A    between atoms: _76  and  _77
REMARK   33  A    between atoms: _76  and  _79
REMARK   34  A    between atoms: _79  and  _80
REMARK   35  A    between atoms: _83  and  _85
REMARK   36  A    between atoms: _85  and  _86
REMARK   37  A    between atoms: _85  and  _88
REMARK   38  A    between atoms: _88  and  _89
REMARK   39  A    between atoms: _92  and  _94
REMARK   40  A    between atoms: _94  and  _95
REMARK   41  A    between atoms: _94  and  _97
REMARK   42  A    between atoms: _100  and  _102
REMARK   43  A    between atoms: _102  and  _103
REMARK   44  A    between atoms: _102  and  _105
REMARK   45  A    between atoms: _105  and  _106
REMARK   46  A    between atoms: _106  and  _107
REMARK   47  A    between atoms: _107  and  _108
REMARK   48  A    between atoms: _108  and  _109
REMARK   49  A    between atoms: _113  and  _115
REMARK   50  A    between atoms: _115  and  _116
REMARK   51  A    between atoms: _115  and  _118
REMARK   52  A    between atoms: _118  and  _119
REMARK   53  A    between atoms: _119  and  _120
REMARK   54  A    between atoms: _122  and  _124
REMARK   55  A    between atoms: _124  and  _125
REMARK   56  A    between atoms: _124  and  _127
REMARK   57  A    between atoms: _127  and  _128
REMARK   58  A    between atoms: _131  and  _133
REMARK   59  A    between atoms: _133  and  _134
REMARK   60  A    between atoms: _136  and  _138
REMARK   61  A    between atoms: _138  and  _139
REMARK   62  A    between atoms: _141  and  _143
REMARK   63  A    between atoms: _143  and  _144
REMARK   64  A    between atoms: _143  and  _146
REMARK   65  A    between atoms: _146  and  _147
REMARK   66  A    between atoms: _150  and  _152
REMARK   67  A    between atoms: _152  and  _153
REMARK   68  A    between atoms: _155  and  _157
REMARK   69  A    between atoms: _157  and  _158
REMARK   70  A    between atoms: _160  and  _162
REMARK   71  A    between atoms: _162  and  _163
REMARK   72  A    between atoms: _162  and  _165
REMARK   73  A    between atoms: _165  and  _166
REMARK   74  A    between atoms: _172  and  _174
REMARK   75  A    between atoms: _174  and  _175
REMARK   76  A    between atoms: _174  and  _177
REMARK   77  A    between atoms: _177  and  _178
REMARK   78  A    between atoms: _181  and  _183
REMARK   79  A    between atoms: _183  and  _184
REMARK   80  A    between atoms: _183  and  _186
REMARK   81  A    between atoms: _189  and  _191
REMARK   82  A    between atoms: _191  and  _192
REMARK   83  A    between atoms: _191  and  _194
REMARK   84  A    between atoms: _194  and  _195
REMARK   85  A    between atoms: _198  and  _200
REMARK   86  A    between atoms: _200  and  _201
REMARK   87  A    between atoms: _200  and  _203
REMARK   88  A    between atoms: _203  and  _204
REMARK   89  A    between atoms: _208  and  _209
REMARK   90  A    between atoms: _214  and  _216
REMARK   91  A    between atoms: _216  and  _217
REMARK   92  A    between atoms: _216  and  _219
REMARK   93  A    between atoms: _219  and  _220
REMARK   94  A    between atoms: _223  and  _225
REMARK   95  A    between atoms: _225  and  _226
REMARK   96  A    between atoms: _225  and  _228
REMARK   97  A    between atoms: _228  and  _229
REMARK   98  A    between atoms: _234  and  _236
REMARK   99  A    between atoms: _236  and  _237
REMARK  100  A    between atoms: _236  and  _239
REMARK  101  A    between atoms: _242  and  _244
REMARK  102  A    between atoms: _244  and  _245
REMARK  103  A    between atoms: _244  and  _247
REMARK  104  A    between atoms: _247  and  _248
REMARK  105  A    between atoms: _251  and  _253
REMARK  106  A    between atoms: _253  and  _254
REMARK  107  A    between atoms: _256  and  _258
REMARK  108  A    between atoms: _258  and  _259
REMARK  109  A    between atoms: _258  and  _261
REMARK  110  A    between atoms: _261  and  _262
REMARK  111  A    between atoms: _262  and  _263
REMARK  112  A    between atoms: _263  and  _264
REMARK  113  A    between atoms: _273  and  _275
REMARK  114  A    between atoms: _275  and  _276
REMARK  115  A    between atoms: _275  and  _278
REMARK  116  A    between atoms: _278  and  _279
REMARK  117  A    between atoms: _284  and  _286
REMARK  118  A    between atoms: _286  and  _287
REMARK  119  A    between atoms: _286  and  _289
REMARK  120  A    between atoms: _289  and  _290
REMARK  121  A    between atoms: _290  and  _291
REMARK  122  A    between atoms: _291  and  _292
REMARK  123  A    between atoms: _301  and  _303
REMARK  124  A    between atoms: _303  and  _304
REMARK  125  A    between atoms: _303  and  _306
REMARK  126  A    between atoms: _306  and  _307
REMARK  127  A    between atoms: _310  and  _312
REMARK  128  A    between atoms: _312  and  _313
REMARK  129  A    between atoms: _316  and  _318
REMARK  130  A    between atoms: _318  and  _319
REMARK  131  A    between atoms: _318  and  _321
REMARK  132  A    between atoms: _321  and  _322
REMARK  133  A    between atoms: _325  and  _327
REMARK  134  A    between atoms: _327  and  _328
REMARK  135  A    between atoms: _327  and  _330
REMARK  136  A    between atoms: _330  and  _331
REMARK  137  A    between atoms: _334  and  _336
REMARK  138  A    between atoms: _336  and  _337
REMARK  139  A    between atoms: _336  and  _339
REMARK  140  A    between atoms: _339  and  _340
REMARK  141  A    between atoms: _343  and  _345
REMARK  142  A    between atoms: _345  and  _346
REMARK  143  A    between atoms: _345  and  _348
REMARK  144  A    between atoms: _348  and  _349
REMARK  145  A    between atoms: _352  and  _354
REMARK  146  A    between atoms: _354  and  _355
REMARK  147  A    between atoms: _357  and  _359
REMARK  148  A    between atoms: _359  and  _360
REMARK  149  A    between atoms: _363  and  _365
REMARK  150  A    between atoms: _365  and  _366
REMARK  151  A    between atoms: _365  and  _368
REMARK  152  A    between atoms: _368  and  _369
REMARK  153  A    between atoms: _372  and  _374
REMARK  154  A    between atoms: _374  and  _375
REMARK  155  A    between atoms: _374  and  _377
REMARK  156  A    between atoms: _377  and  _378
REMARK  157  A    between atoms: _381  and  _383
REMARK  158  A    between atoms: _383  and  _384
REMARK  159  A    between atoms: _383  and  _386
REMARK  160  A    between atoms: _386  and  _387
REMARK  161  A    between atoms: _390  and  _392
REMARK  162  A    between atoms: _392  and  _393
REMARK  163  A    between atoms: _392  and  _395
REMARK  164  A    between atoms: _398  and  _400
REMARK  165  A    between atoms: _400  and  _401
REMARK  166  A    between atoms: _400  and  _403
REMARK  167  A    between atoms: _403  and  _404
REMARK  168  A    between atoms: _404  and  _405
REMARK  169  A    between atoms: _408  and  _410
REMARK  170  A    between atoms: _410  and  _411
REMARK  171  A    between atoms: _410  and  _413
REMARK  172  A    between atoms: _413  and  _414
REMARK  173  A    between atoms: _414  and  _415
REMARK  174  A    between atoms: _415  and  _416
REMARK  175  A    between atoms: _416  and  _417
REMARK  176  A    between atoms: _421  and  _423
REMARK  177  A    between atoms: _423  and  _424
REMARK  178  A    between atoms: _423  and  _426
REMARK  179  A    between atoms: _426  and  _427
REMARK  180  A    between atoms: _427  and  _428
REMARK  181  A    between atoms: _430  and  _432
REMARK  182  A    between atoms: _432  and  _433
REMARK  183  A    between atoms: _432  and  _435
REMARK  184  A    between atoms: _435  and  _436
REMARK  185  A    between atoms: _439  and  _441
REMARK  186  A    between atoms: _441  and  _442
REMARK  187  A    between atoms: _444  and  _446
REMARK  188  A    between atoms: _446  and  _447
REMARK  189  A    between atoms: _449  and  _451
REMARK  190  A    between atoms: _451  and  _452
REMARK  191  A    between atoms: _451  and  _454
REMARK  192  A    between atoms: _454  and  _455
REMARK  193  A    between atoms: _458  and  _460
REMARK  194  A    between atoms: _460  and  _461
REMARK  195  A    between atoms: _463  and  _465
REMARK  196  A    between atoms: _465  and  _466
REMARK  197  A    between atoms: _468  and  _470
REMARK  198  A    between atoms: _470  and  _471
REMARK  199  A    between atoms: _470  and  _473
REMARK  200  A    between atoms: _473  and  _474
REMARK  201  A    between atoms: _480  and  _482
REMARK  202  A    between atoms: _482  and  _483
REMARK  203  A    between atoms: _482  and  _485
REMARK  204  A    between atoms: _485  and  _486
REMARK  205  A    between atoms: _489  and  _491
REMARK  206  A    between atoms: _491  and  _492
REMARK  207  A    between atoms: _491  and  _494
REMARK  208  A    between atoms: _497  and  _499
REMARK  209  A    between atoms: _499  and  _500
REMARK  210  A    between atoms: _499  and  _502
REMARK  211  A    between atoms: _502  and  _503
REMARK  212  A    between atoms: _506  and  _508
REMARK  213  A    between atoms: _508  and  _509
REMARK  214  A    between atoms: _508  and  _511
REMARK  215  A    between atoms: _511  and  _512
REMARK  216  A    between atoms: _516  and  _517
REMARK  217  A    between atoms: _522  and  _524
REMARK  218  A    between atoms: _524  and  _525
REMARK  219  A    between atoms: _524  and  _527
REMARK  220  A    between atoms: _527  and  _528
REMARK  221  A    between atoms: _531  and  _533
REMARK  222  A    between atoms: _533  and  _534
REMARK  223  A    between atoms: _533  and  _536
REMARK  224  A    between atoms: _536  and  _537
REMARK  225  A    between atoms: _542  and  _544
REMARK  226  A    between atoms: _544  and  _545
REMARK  227  A    between atoms: _544  and  _547
REMARK  228  A    between atoms: _550  and  _552
REMARK  229  A    between atoms: _552  and  _553
REMARK  230  A    between atoms: _552  and  _555
REMARK  231  A    between atoms: _555  and  _556
REMARK  232  A    between atoms: _559  and  _561
REMARK  233  A    between atoms: _561  and  _562
REMARK  234  A    between atoms: _564  and  _566
REMARK  235  A    between atoms: _566  and  _567
REMARK  236  A    between atoms: _566  and  _569
REMARK  237  A    between atoms: _569  and  _570
REMARK  238  A    between atoms: _570  and  _571
REMARK  239  A    between atoms: _571  and  _572
REMARK                            x       y       z     vdW  Elec       q    Type
REMARK                         _______ _______ _______ _____ _____    ______ ____
ROOT
ATOM      1  CA  LEU A   1      15.874  13.616  -4.571  0.00  0.00    +0.133 C 
ENDROOT
BRANCH   1   2
ATOM      2  N   LEU A   1      16.664  14.542  -5.376  0.00  0.00    -0.239 NA
ATOM      3  H   LEU A   1      16.644  15.556  -5.147  0.00  0.00    +0.142 HD
ENDBRANCH   1   2
BRANCH   1   4
ATOM      4  C   LEU A   1      14.400  13.826  -4.913  0.00  0.00    +0.224 C 
ATOM      5  O   LEU A   1      13.935  14.963  -5.005  0.00  0.00    -0.287 OA
ENDBRANCH   1   4
BRANCH   1   6
ATOM      6  CB  LEU A   1      16.105  13.888  -3.080  0.00  0.00    +0.025 C 
BRANCH   6   7
ATOM      7  CG  LEU A   1      17.558  13.935  -2.595  0.00  0.00    +0.002 C 
ATOM      8  CD2 LEU A   1      17.603  14.200  -1.088  0.00  0.00    +0.000 C 
ATOM      9  CD1 LEU A   1      18.245  12.618  -2.919  0.00  0.00    +0.000 C 
ENDBRANCH   6   7
ENDBRANCH   1   6
TORSDOF 4
REMARK  Name = ../refined-set-2016/4a6b/4a6b_pocket.pdb
REMARK  239 active torsions:
REMARK  status: ('A' for Active; 'I' for Inactive)
REMARK    1  A    between atoms: _1  and  _3
REMARK    2  A    between atoms: _3  and  _4
REMARK    3  A    between atoms: _3  and  _6
REMARK    4  A    between atoms: _6  and  _7
REMARK    5  A    between atoms: _7  and  _8
REMARK    6  A    between atoms: _8  and  _9
REMARK    7  A    between atoms: _18  and  _20
REMARK    8  A    between atoms: _20  and  _21
REMARK    9  A    between atoms: _20  and  _23
REMARK   10  A    between atoms: _23  and  _24
REMARK   11  A    between atoms: _27  and  _29
REMARK   12  A    between atoms: _29  and  _30
REMARK   13  A    between atoms: _29  and  _32
REMARK   14  A    between atoms: _32  and  _33
REMARK   15  A    between atoms: _36  and  _38
REMARK   16  A    between atoms: _38  and  _39
REMARK   17  A    between atoms: _38  and  _41
REMARK   18  A    between atoms: _41  and  _42
REMARK   19  A    between atoms: _45  and  _47
REMARK   20  A    between atoms: _47  and  _48
REMARK   21  A    between atoms: _47  and  _50
REMARK   22  A    between atoms: _50  and  _51
REMARK   23  A    between atoms: _54  and  _56
REMARK   24  A    between atoms: _56  and  _57
REMARK   25  A    between atoms: _59  and  _61
REMARK   26  A    between atoms: _61  and  _62
REMARK   27  A    between atoms: _65  and  _67
REMARK   28  A    between atoms: _67  and  _68
REMARK   29  A    between atoms: _67  and  _70
REMARK   30  A    between atoms: _70  and  _71
REMARK   31  A    between atoms: _74  and  _76
REMARK   32  A    between atoms: _76  and  _77
REMARK   33  A    between atoms: _76  and  _79
REMARK   34  A    between atoms: _79  and  _80
REMARK   35  A    between atoms: _83  and  _85
REMARK   36  A    between atoms: _85  and  _86
REMARK   37  A    between atoms: _85  and  _88
REMARK   38  A    between atoms: _88  and  _89
REMARK   39  A    between atoms: _92  and  _94
REMARK   40  A    between atoms: _94  and  _95
REMARK   41  A    between atoms: _94  and  _97
REMARK   42  A    between atoms: _100  and  _102
REMARK   43  A    between atoms: _102  and  _103
REMARK   44  A    between atoms: _102  and  _105
REMARK   45  A    between atoms: _105  and  _106
REMARK   46  A    between atoms: _106  and  _107
REMARK   47  A    between atoms: _107  and  _108
REMARK   48  A    between atoms: _108  and  _109
REMARK   49  A    between atoms: _113  and  _115
REMARK   50  A    between atoms: _115  and  _116
REMARK   51  A    between atoms: _115  and  _118
REMARK   52  A    between atoms: _118  and  _119
REMARK   53  A    between atoms: _119  and  _120
REMARK   54  A    between atoms: _122  and  _124
REMARK   55  A    between atoms: _124  and  _125
REMARK   56  A    between atoms: _124  and  _127
REMARK   57  A    between atoms: _127  and  _128
REMARK   58  A    between atoms: _131  and  _133
REMARK   59  A    between atoms: _133  and  _134
REMARK   60  A    between atoms: _136  and  _138
REMARK   61  A    between atoms: _138  and  _139
REMARK   62  A    between atoms: _141  and  _143
REMARK   63  A    between atoms: _143  and  _144
REMARK   64  A    between atoms: _143  and  _146
REMARK   65  A    between atoms: _146  and  _147
REMARK   66  A    between atoms: _150  and  _152
REMARK   67  A    between atoms: _152  and  _153
REMARK   68  A    between atoms: _155  and  _157
REMARK   69  A    between atoms: _157  and  _158
REMARK   70  A    between atoms: _160  and  _162
REMARK   71  A    between atoms: _162  and  _163
REMARK   72  A    between atoms: _162  and  _165
REMARK   73  A    between atoms: _165  and  _166
REMARK   74  A    between atoms: _172  and  _174
REMARK   75  A    between atoms: _174  and  _175
REMARK   76  A    between atoms: _174  and  _177
REMARK   77  A    between atoms: _177  and  _178
REMARK   78  A    between atoms: _181  and  _183
REMARK   79  A    between atoms: _183  and  _184
REMARK   80  A    between atoms: _183  and  _186
REMARK   81  A    between atoms: _189  and  _191
REMARK   82  A    between atoms: _191  and  _192
REMARK   83  A    between atoms: _191  and  _194
REMARK   84  A    between atoms: _194  and  _195
REMARK   85  A    between atoms: _198  and  _200
REMARK   86  A    between atoms: _200  and  _201
REMARK   87  A    between atoms: _200  and  _203
REMARK   88  A    between atoms: _203  and  _204
REMARK   89  A    between atoms: _208  and  _209
REMARK   90  A    between atoms: _214  and  _216
REMARK   91  A    between atoms: _216  and  _217
REMARK   92  A    between atoms: _216  and  _219
REMARK   93  A    between atoms: _219  and  _220
REMARK   94  A    between atoms: _223  and  _225
REMARK   95  A    between atoms: _225  and  _226
REMARK   96  A    between atoms: _225  and  _228
REMARK   97  A    between atoms: _228  and  _229
REMARK   98  A    between atoms: _234  and  _236
REMARK   99  A    between atoms: _236  and  _237
REMARK  100  A    between atoms: _236  and  _239
REMARK  101  A    between atoms: _242  and  _244
REMARK  102  A    between atoms: _244  and  _245
REMARK  103  A    between atoms: _244  and  _247
REMARK  104  A    between atoms: _247  and  _248
REMARK  105  A    between atoms: _251  and  _253
REMARK  106  A    between atoms: _253  and  _254
REMARK  107  A    between atoms: _256  and  _258
REMARK  108  A    between atoms: _258  and  _259
REMARK  109  A    between atoms: _258  and  _261
REMARK  110  A    between atoms: _261  and  _262
REMARK  111  A    between atoms: _262  and  _263
REMARK  112  A    between atoms: _263  and  _264
REMARK  113  A    between atoms: _273  and  _275
REMARK  114  A    between atoms: _275  and  _276
REMARK  115  A    between atoms: _275  and  _278
REMARK  116  A    between atoms: _278  and  _279
REMARK  117  A    between atoms: _284  and  _286
REMARK  118  A    between atoms: _286  and  _287
REMARK  119  A    between atoms: _286  and  _289
REMARK  120  A    between atoms: _289  and  _290
REMARK  121  A    between atoms: _290  and  _291
REMARK  122  A    between atoms: _291  and  _292
REMARK  123  A    between atoms: _301  and  _303
REMARK  124  A    between atoms: _303  and  _304
REMARK  125  A    between atoms: _303  and  _306
REMARK  126  A    between atoms: _306  and  _307
REMARK  127  A    between atoms: _310  and  _312
REMARK  128  A    between atoms: _312  and  _313
REMARK  129  A    between atoms: _316  and  _318
REMARK  130  A    between atoms: _318  and  _319
REMARK  131  A    between atoms: _318  and  _321
REMARK  132  A    between atoms: _321  and  _322
REMARK  133  A    between atoms: _325  and  _327
REMARK  134  A    between atoms: _327  and  _328
REMARK  135  A    between atoms: _327  and  _330
REMARK  136  A    between atoms: _330  and  _331
REMARK  137  A    between atoms: _334  and  _336
REMARK  138  A    between atoms: _336  and  _337
REMARK  139  A    between atoms: _336  and  _339
REMARK  140  A    between atoms: _339  and  _340
REMARK  141  A    between atoms: _343  and  _345
REMARK  142  A    between atoms: _345  and  _346
REMARK  143  A    between atoms: _345  and  _348
REMARK  144  A    between atoms: _348  and  _349
REMARK  145  A    between atoms: _352  and  _354
REMARK  146  A    between atoms: _354  and  _355
REMARK  147  A    between atoms: _357  and  _359
REMARK  148  A    between atoms: _359  and  _360
REMARK  149  A    between atoms: _363  and  _365
REMARK  150  A    between atoms: _365  and  _366
REMARK  151  A    between atoms: _365  and  _368
REMARK  152  A    between atoms: _368  and  _369
REMARK  153  A    between atoms: _372  and  _374
REMARK  154  A    between atoms: _374  and  _375
REMARK  155  A    between atoms: _374  and  _377
REMARK  156  A    between atoms: _377  and  _378
REMARK  157  A    between atoms: _381  and  _383
REMARK  158  A    between atoms: _383  and  _384
REMARK  159  A    between atoms: _383  and  _386
REMARK  160  A    between atoms: _386  and  _387
REMARK  161  A    between atoms: _390  and  _392
REMARK  162  A    between atoms: _392  and  _393
REMARK  163  A    between atoms: _392  and  _395
REMARK  164  A    between atoms: _398  and  _400
REMARK  165  A    between atoms: _400  and  _401
REMARK  166  A    between atoms: _400  and  _403
REMARK  167  A    between atoms: _403  and  _404
REMARK  168  A    between atoms: _404  and  _405
REMARK  169  A    between atoms: _408  and  _410
REMARK  170  A    between atoms: _410  and  _411
REMARK  171  A    between atoms: _410  and  _413
REMARK  172  A    between atoms: _413  and  _414
REMARK  173  A    between atoms: _414  and  _415
REMARK  174  A    between atoms: _415  and  _416
REMARK  175  A    between atoms: _416  and  _417
REMARK  176  A    between atoms: _421  and  _423
REMARK  177  A    between atoms: _423  and  _424
REMARK  178  A    between atoms: _423  and  _426
REMARK  179  A    between atoms: _426  and  _427
REMARK  180  A    between atoms: _427  and  _428
REMARK  181  A    between atoms: _430  and  _432
REMARK  182  A    between atoms: _432  and  _433
REMARK  183  A    between atoms: _432  and  _435
REMARK  184  A    between atoms: _435  and  _436
REMARK  185  A    between atoms: _439  and  _441
REMARK  186  A    between atoms: _441  and  _442
REMARK  187  A    between atoms: _444  and  _446
REMARK  188  A    between atoms: _446  and  _447
REMARK  189  A    between atoms: _449  and  _451
REMARK  190  A    between atoms: _451  and  _452
REMARK  191  A    between atoms: _451  and  _454
REMARK  192  A    between atoms: _454  and  _455
REMARK  193  A    between atoms: _458  and  _460
REMARK  194  A    between atoms: _460  and  _461
REMARK  195  A    between atoms: _463  and  _465
REMARK  196  A    between atoms: _465  and  _466
REMARK  197  A    between atoms: _468  and  _470
REMARK  198  A    between atoms: _470  and  _471
REMARK  199  A    between atoms: _470  and  _473
REMARK  200  A    between atoms: _473  and  _474
REMARK  201  A    between atoms: _480  and  _482
REMARK  202  A    between atoms: _482  and  _483
REMARK  203  A    between atoms: _482  and  _485
REMARK  204  A    between atoms: _485  and  _486
REMARK  205  A    between atoms: _489  and  _491
REMARK  206  A    between atoms: _491  and  _492
REMARK  207  A    between atoms: _491  and  _494
REMARK  208  A    between atoms: _497  and  _499
REMARK  209  A    between atoms: _499  and  _500
REMARK  210  A    between atoms: _499  and  _502
REMARK  211  A    between atoms: _502  and  _503
REMARK  212  A    between atoms: _506  and  _508
REMARK  213  A    between atoms: _508  and  _509
REMARK  214  A    between atoms: _508  and  _511
REMARK  215  A    between atoms: _511  and  _512
REMARK  216  A    between atoms: _516  and  _517
REMARK  217  A    between atoms: _522  and  _524
REMARK  218  A    between atoms: _524  and  _525
REMARK  219  A    between atoms: _524  and  _527
REMARK  220  A    between atoms: _527  and  _528
REMARK  221  A    between atoms: _531  and  _533
REMARK  222  A    between atoms: _533  and  _534
REMARK  223  A    between atoms: _533  and  _536
REMARK  224  A    between atoms: _536  and  _537
REMARK  225  A    between atoms: _542  and  _544
REMARK  226  A    between atoms: _544  and  _545
REMARK  227  A    between atoms: _544  and  _547
REMARK  228  A    between atoms: _550  and  _552
REMARK  229  A    between atoms: _552  and  _553
REMARK  230  A    between atoms: _552  and  _555
REMARK  231  A    between atoms: _555  and  _556
REMARK  232  A    between atoms: _559  and  _561
REMARK  233  A    between atoms: _561  and  _562
REMARK  234  A    between atoms: _564  and  _566
REMARK  235  A    between atoms: _566  and  _567
REMARK  236  A    between atoms: _566  and  _569
REMARK  237  A    between atoms: _569  and  _570
REMARK  238  A    between atoms: _570  and  _571
REMARK  239  A    between atoms: _571  and  _572
REMARK                            x       y       z     vdW  Elec       q    Type
REMARK                         _______ _______ _______ _____ _____    ______ ____
ROOT
ATOM      1  C   ASN A   4      11.362  22.738  -4.344  0.00  0.00    +0.241 C 
ATOM      2  N   VAL A   5      12.408  22.143  -3.789  0.00  0.00    -0.297 N 
ATOM      3  H   VAL A   5      12.510  21.109  -3.831  0.00  0.00    +0.150 HD
ATOM      4  O   ASN A   4      11.195  23.956  -4.311  0.00  0.00    -0.273 OA
ENDROOT
BRANCH   2   5
ATOM      5  CA  VAL A   5      13.410  22.954  -3.122  0.00  0.00    +0.149 C 
BRANCH   5   6
ATOM      6  C   VAL A   5      14.793  22.689  -3.689  0.00  0.00    +0.241 C 
ATOM      7  O   VAL A   5      15.186  21.538  -3.877  0.00  0.00    -0.273 OA
ATOM      8  N   ILE A   6      15.513  23.769  -3.985  0.00  0.00    -0.297 N 
ATOM      9  H   ILE A   6      15.093  24.710  -3.846  0.00  0.00    +0.150 HD
BRANCH   8  10
ATOM     10  CA  ILE A   6      16.868  23.669  -4.497  0.00  0.00    +0.149 C 
BRANCH  10  11
ATOM     11  C   ILE A   6      17.789  23.863  -3.297  0.00  0.00    +0.241 C 
ATOM     12  O   ILE A   6      17.765  24.906  -2.644  0.00  0.00    -0.273 OA
ATOM     13  N   GLY A   7      18.586  22.844  -3.003  0.00  0.00    -0.295 N 
ATOM     14  H   GLY A   7      18.568  21.991  -3.598  0.00  0.00    +0.150 HD
BRANCH  13  15
ATOM     15  CA  GLY A   7      19.484  22.901  -1.862  0.00  0.00    +0.176 C 
BRANCH  15  16
ATOM     16  C   GLY A   7      20.912  23.284  -2.189  0.00  0.00    +0.243 C 
ATOM     17  N   ARG A   8      21.733  23.354  -1.145  0.00  0.00    -0.298 N 
ATOM     18  H   ARG A   8      21.367  23.129  -0.198  0.00  0.00    +0.150 HD
ATOM     19  O   GLY A   7      21.273  23.497  -3.355  0.00  0.00    -0.273 OA
BRANCH  17  20
ATOM     20  CA  ARG A   8      23.135  23.739  -1.293  0.00  0.00    +0.137 C 
BRANCH  20  21
ATOM     21  C   ARG A   8      23.942  22.927  -2.295  0.00  0.00    +0.227 C 
ATOM     22  O   ARG A   8      24.868  23.463  -2.914  0.00  0.00    -0.286 OA
ENDBRANCH  20  21
BRANCH  20  23
ATOM     23  CB  ARG A   8      23.843  23.722   0.070  0.00  0.00    +0.031 C 
BRANCH  23  24
ATOM     24  CG  ARG A   8      23.343  24.788   1.028  0.00  0.00    +0.045 C 
BRANCH  24  25
ATOM     25  CD  ARG A   8      24.230  24.924   2.272  0.00  0.00    +0.174 C 
BRANCH  25  26
ATOM     26  NE  ARG A   8      24.294  23.685   3.047  0.00  0.00    -0.265 N 
ATOM     27  HE  ARG A   8      23.501  23.475   3.686  0.00  0.00    +0.259 HD
ATOM     28  CZ  ARG A   8      25.292  22.807   2.995  0.00  0.00    +0.342 C 
ATOM     29  NH2 ARG A   8      25.241  21.698   3.723  0.00  0.00    -0.292 N 
ATOM     30 HH21 ARG A   8      24.420  21.515   4.335  0.00  0.00    +0.255 HD
ATOM     31 HH22 ARG A   8      26.022  21.012   3.681  0.00  0.00    +0.255 HD
ATOM     32  NH1 ARG A   8      26.333  23.024   2.204  0.00  0.00    -0.292 N 
ATOM     33 HH11 ARG A   8      27.111  22.334   2.167  0.00  0.00    +0.255 HD
ATOM     34 HH12 ARG A   8      26.372  23.884   1.620  0.00  0.00    +0.255 HD
ENDBRANCH  25  26
ENDBRANCH  24  25
ENDBRANCH  23  24
ENDBRANCH  20  23
ENDBRANCH  17  20
ENDBRANCH  15  16
ENDBRANCH  13  15
ENDBRANCH  10  11
BRANCH  10  35
ATOM     35  CB  ILE A   6      17.175  24.748  -5.531  0.00  0.00    +0.027 C 
ATOM     36  CG2 ILE A   6      18.595  24.543  -6.060  0.00  0.00    +0.002 C 
BRANCH  35  37
ATOM     37  CG1 ILE A   6      16.166  24.672  -6.681  0.00  0.00    +0.002 C 
ATOM     38  CD1 ILE A   6      16.339  25.788  -7.680  0.00  0.00    +0.000 C 
ENDBRANCH  35  37
ENDBRANCH  10  35
ENDBRANCH   8  10
ENDBRANCH   5   6
BRANCH   5  39
ATOM     39  CB  VAL A   5      13.433  22.702  -1.596  0.00  0.00    +0.027 C 
ATOM     40  CG2 VAL A   5      12.024  22.746  -1.041  0.00  0.00    +0.002 C 
ATOM     41  CG1 VAL A   5      14.096  21.397  -1.292  0.00  0.00    +0.002 C 
ENDBRANCH   5  39
ENDBRANCH   2   5
BRANCH   1  42
ATOM     42  CA  ASN A   4      10.348  21.853  -5.035  0.00  0.00    +0.158 C 
BRANCH  42  45
ATOM     43  C   THR A   3       8.699  21.899  -3.258  0.00  0.00    +0.243 C 
ATOM     44  O   THR A   3       9.403  21.205  -2.526  0.00  0.00    -0.273 OA
ATOM     45  N   ASN A   4       9.055  22.240  -4.491  0.00  0.00    -0.297 N 
ATOM     46  H   ASN A   4       8.398  22.793  -5.078  0.00  0.00    +0.150 HD
BRANCH  43  47
ATOM     47  CA  THR A   3       7.335  22.396  -2.789  0.00  0.00    +0.176 C 
BRANCH  47  49
ATOM     48  C   PRO A   2       5.547  21.501  -1.441  0.00  0.00    +0.241 C 
ATOM     49  N   THR A   3       6.843  21.540  -1.721  0.00  0.00    -0.295 N 
ATOM     50  H   THR A   3       7.509  20.957  -1.175  0.00  0.00    +0.150 HD
ATOM     51  O   PRO A   2       4.720  22.170  -2.053  0.00  0.00    -0.273 OA
BRANCH  48  57
ATOM     52  C   THR A   1       6.448  18.611  -0.849  0.00  0.00    +0.244 C 
ATOM     53  N   PRO A   2       6.137  19.574   0.030  0.00  0.00    -0.272 N 
ATOM     54  CD  PRO A   2       6.508  19.663   1.452  0.00  0.00    +0.094 C 
ATOM     55  CG  PRO A   2       6.102  21.063   1.795  0.00  0.00    +0.024 C 
ATOM     56  CB  PRO A   2       4.862  21.291   1.008  0.00  0.00    +0.031 C 
ATOM     57  CA  PRO A   2       5.117  20.566  -0.318  0.00  0.00    +0.152 C 
ATOM     58  O   THR A   1       5.882  18.522  -1.937  0.00  0.00    -0.273 OA
BRANCH  52  59
ATOM     59  CA  THR A   1       7.519  17.604  -0.436  0.00  0.00    +0.172 C 
BRANCH  59  60
ATOM     60  N   THR A   1       7.182  16.284  -0.947  0.00  0.00    -0.236 NA
ATOM     61  H   THR A   1       7.070  16.149  -1.972  0.00  0.00    +0.142 HD
ENDBRANCH  59  60
BRANCH  59  62
ATOM     62  CB  THR A   1       8.902  18.075  -0.959  0.00  0.00    +0.135 C 
ATOM     63  CG2 THR A   1       8.955  18.014  -2.478  0.00  0.00    +0.034 C 
BRANCH  62  64
ATOM     64  OG1 THR A   1       9.146  19.420  -0.522  0.00  0.00    -0.383 OA
ATOM     65  HG1 THR A   1       8.438  20.015  -0.877  0.00  0.00    +0.210 HD
ENDBRANCH  62  64
ENDBRANCH  59  62
ENDBRANCH  52  59
ENDBRANCH  48  57
ENDBRANCH  47  49
BRANCH  47  66
ATOM     66  CB  THR A   3       7.462  23.861  -2.312  0.00  0.00    +0.137 C 
ATOM     67  CG2 THR A   3       7.638  24.796  -3.501  0.00  0.00    +0.034 C 
BRANCH  66  68
ATOM     68  OG1 THR A   3       6.270  24.243  -1.613  0.00  0.00    -0.382 OA
ATOM     69  HG1 THR A   3       5.492  24.160  -2.220  0.00  0.00    +0.210 HD
ENDBRANCH  66  68
ENDBRANCH  47  66
ENDBRANCH  43  47
ENDBRANCH  42  45
BRANCH  42  70
ATOM     70  CB  ASN A   4      10.423  22.133  -6.537  0.00  0.00    +0.114 C 
BRANCH  70  71
ATOM     71  CG  ASN A   4       9.468  21.285  -7.338  0.00  0.00    +0.222 C 
ATOM     72  OD1 ASN A   4       9.339  20.081  -7.104  0.00  0.00    -0.275 OA
ATOM     73  ND2 ASN A   4       8.796  21.907  -8.302  0.00  0.00    -0.329 N 
ATOM     74 HD21 ASN A   4       8.938  22.925  -8.462  0.00  0.00    +0.145 HD
ATOM     75 HD22 ASN A   4       8.128  21.376  -8.896  0.00  0.00    +0.145 HD
ENDBRANCH  70  71
ENDBRANCH  42  70
ENDBRANCH   1  42
TORSDOF 28
REMARK  Name = ../refined-set-2016/4a6b/4a6b_pocket.pdb
REMARK  239 active torsions:
REMARK  status: ('A' for Active; 'I' for Inactive)
REMARK    1  A    between atoms: _1  and  _3
REMARK    2  A    between atoms: _3  and  _4
REMARK    3  A    between atoms: _3  and  _6
REMARK    4  A    between atoms: _6  and  _7
REMARK    5  A    between atoms: _7  and  _8
REMARK    6  A    between atoms: _8  and  _9
REMARK    7  A    between atoms: _18  and  _20
REMARK    8  A    between atoms: _20  and  _21
REMARK    9  A    between atoms: _20  and  _23
REMARK   10  A    between atoms: _23  and  _24
REMARK   11  A    between atoms: _27  and  _29
REMARK   12  A    between atoms: _29  and  _30
REMARK   13  A    between atoms: _29  and  _32
REMARK   14  A    between atoms: _32  and  _33
REMARK   15  A    between atoms: _36  and  _38
REMARK   16  A    between atoms: _38  and  _39
REMARK   17  A    between atoms: _38  and  _41
REMARK   18  A    between atoms: _41  and  _42
REMARK   19  A    between atoms: _45  and  _47
REMARK   20  A    between atoms: _47  and  _48
REMARK   21  A    between atoms: _47  and  _50
REMARK   22  A    between atoms: _50  and  _51
REMARK   23  A    between atoms: _54  and  _56
REMARK   24  A    between atoms: _56  and  _57
REMARK   25  A    between atoms: _59  and  _61
REMARK   26  A    between atoms: _61  and  _62
REMARK   27  A    between atoms: _65  and  _67
REMARK   28  A    between atoms: _67  and  _68
REMARK   29  A    between atoms: _67  and  _70
REMARK   30  A    between atoms: _70  and  _71
REMARK   31  A    between atoms: _74  and  _76
REMARK   32  A    between atoms: _76  and  _77
REMARK   33  A    between atoms: _76  and  _79
REMARK   34  A    between atoms: _79  and  _80
REMARK   35  A    between atoms: _83  and  _85
REMARK   36  A    between atoms: _85  and  _86
REMARK   37  A    between atoms: _85  and  _88
REMARK   38  A    between atoms: _88  and  _89
REMARK   39  A    between atoms: _92  and  _94
REMARK   40  A    between atoms: _94  and  _95
REMARK   41  A    between atoms: _94  and  _97
REMARK   42  A    between atoms: _100  and  _102
REMARK   43  A    between atoms: _102  and  _103
REMARK   44  A    between atoms: _102  and  _105
REMARK   45  A    between atoms: _105  and  _106
REMARK   46  A    between atoms: _106  and  _107
REMARK   47  A    between atoms: _107  and  _108
REMARK   48  A    between atoms: _108  and  _109
REMARK   49  A    between atoms: _113  and  _115
REMARK   50  A    between atoms: _115  and  _116
REMARK   51  A    between atoms: _115  and  _118
REMARK   52  A    between atoms: _118  and  _119
REMARK   53  A    between atoms: _119  and  _120
REMARK   54  A    between atoms: _122  and  _124
REMARK   55  A    between atoms: _124  and  _125
REMARK   56  A    between atoms: _124  and  _127
REMARK   57  A    between atoms: _127  and  _128
REMARK   58  A    between atoms: _131  and  _133
REMARK   59  A    between atoms: _133  and  _134
REMARK   60  A    between atoms: _136  and  _138
REMARK   61  A    between atoms: _138  and  _139
REMARK   62  A    between atoms: _141  and  _143
REMARK   63  A    between atoms: _143  and  _144
REMARK   64  A    between atoms: _143  and  _146
REMARK   65  A    between atoms: _146  and  _147
REMARK   66  A    between atoms: _150  and  _152
REMARK   67  A    between atoms: _152  and  _153
REMARK   68  A    between atoms: _155  and  _157
REMARK   69  A    between atoms: _157  and  _158
REMARK   70  A    between atoms: _160  and  _162
REMARK   71  A    between atoms: _162  and  _163
REMARK   72  A    between atoms: _162  and  _165
REMARK   73  A    between atoms: _165  and  _166
REMARK   74  A    between atoms: _172  and  _174
REMARK   75  A    between atoms: _174  and  _175
REMARK   76  A    between atoms: _174  and  _177
REMARK   77  A    between atoms: _177  and  _178
REMARK   78  A    between atoms: _181  and  _183
REMARK   79  A    between atoms: _183  and  _184
REMARK   80  A    between atoms: _183  and  _186
REMARK   81  A    between atoms: _189  and  _191
REMARK   82  A    between atoms: _191  and  _192
REMARK   83  A    between atoms: _191  and  _194
REMARK   84  A    between atoms: _194  and  _195
REMARK   85  A    between atoms: _198  and  _200
REMARK   86  A    between atoms: _200  and  _201
REMARK   87  A    between atoms: _200  and  _203
REMARK   88  A    between atoms: _203  and  _204
REMARK   89  A    between atoms: _208  and  _209
REMARK   90  A    between atoms: _214  and  _216
REMARK   91  A    between atoms: _216  and  _217
REMARK   92  A    between atoms: _216  and  _219
REMARK   93  A    between atoms: _219  and  _220
REMARK   94  A    between atoms: _223  and  _225
REMARK   95  A    between atoms: _225  and  _226
REMARK   96  A    between atoms: _225  and  _228
REMARK   97  A    between atoms: _228  and  _229
REMARK   98  A    between atoms: _234  and  _236
REMARK   99  A    between atoms: _236  and  _237
REMARK  100  A    between atoms: _236  and  _239
REMARK  101  A    between atoms: _242  and  _244
REMARK  102  A    between atoms: _244  and  _245
REMARK  103  A    between atoms: _244  and  _247
REMARK  104  A    between atoms: _247  and  _248
REMARK  105  A    between atoms: _251  and  _253
REMARK  106  A    between atoms: _253  and  _254
REMARK  107  A    between atoms: _256  and  _258
REMARK  108  A    between atoms: _258  and  _259
REMARK  109  A    between atoms: _258  and  _261
REMARK  110  A    between atoms: _261  and  _262
REMARK  111  A    between atoms: _262  and  _263
REMARK  112  A    between atoms: _263  and  _264
REMARK  113  A    between atoms: _273  and  _275
REMARK  114  A    between atoms: _275  and  _276
REMARK  115  A    between atoms: _275  and  _278
REMARK  116  A    between atoms: _278  and  _279
REMARK  117  A    between atoms: _284  and  _286
REMARK  118  A    between atoms: _286  and  _287
REMARK  119  A    between atoms: _286  and  _289
REMARK  120  A    between atoms: _289  and  _290
REMARK  121  A    between atoms: _290  and  _291
REMARK  122  A    between atoms: _291  and  _292
REMARK  123  A    between atoms: _301  and  _303
REMARK  124  A    between atoms: _303  and  _304
REMARK  125  A    between atoms: _303  and  _306
REMARK  126  A    between atoms: _306  and  _307
REMARK  127  A    between atoms: _310  and  _312
REMARK  128  A    between atoms: _312  and  _313
REMARK  129  A    between atoms: _316  and  _318
REMARK  130  A    between atoms: _318  and  _319
REMARK  131  A    between atoms: _318  and  _321
REMARK  132  A    between atoms: _321  and  _322
REMARK  133  A    between atoms: _325  and  _327
REMARK  134  A    between atoms: _327  and  _328
REMARK  135  A    between atoms: _327  and  _330
REMARK  136  A    between atoms: _330  and  _331
REMARK  137  A    between atoms: _334  and  _336
REMARK  138  A    between atoms: _336  and  _337
REMARK  139  A    between atoms: _336  and  _339
REMARK  140  A    between atoms: _339  and  _340
REMARK  141  A    between atoms: _343  and  _345
REMARK  142  A    between atoms: _345  and  _346
REMARK  143  A    between atoms: _345  and  _348
REMARK  144  A    between atoms: _348  and  _349
REMARK  145  A    between atoms: _352  and  _354
REMARK  146  A    between atoms: _354  and  _355
REMARK  147  A    between atoms: _357  and  _359
REMARK  148  A    between atoms: _359  and  _360
REMARK  149  A    between atoms: _363  and  _365
REMARK  150  A    between atoms: _365  and  _366
REMARK  151  A    between atoms: _365  and  _368
REMARK  152  A    between atoms: _368  and  _369
REMARK  153  A    between atoms: _372  and  _374
REMARK  154  A    between atoms: _374  and  _375
REMARK  155  A    between atoms: _374  and  _377
REMARK  156  A    between atoms: _377  and  _378
REMARK  157  A    between atoms: _381  and  _383
REMARK  158  A    between atoms: _383  and  _384
REMARK  159  A    between atoms: _383  and  _386
REMARK  160  A    between atoms: _386  and  _387
REMARK  161  A    between atoms: _390  and  _392
REMARK  162  A    between atoms: _392  and  _393
REMARK  163  A    between atoms: _392  and  _395
REMARK  164  A    between atoms: _398  and  _400
REMARK  165  A    between atoms: _400  and  _401
REMARK  166  A    between atoms: _400  and  _403
REMARK  167  A    between atoms: _403  and  _404
REMARK  168  A    between atoms: _404  and  _405
REMARK  169  A    between atoms: _408  and  _410
REMARK  170  A    between atoms: _410  and  _411
REMARK  171  A    between atoms: _410  and  _413
REMARK  172  A    between atoms: _413  and  _414
REMARK  173  A    between atoms: _414  and  _415
REMARK  174  A    between atoms: _415  and  _416
REMARK  175  A    between atoms: _416  and  _417
REMARK  176  A    between atoms: _421  and  _423
REMARK  177  A    between atoms: _423  and  _424
REMARK  178  A    between atoms: _423  and  _426
REMARK  179  A    between atoms: _426  and  _427
REMARK  180  A    between atoms: _427  and  _428
REMARK  181  A    between atoms: _430  and  _432
REMARK  182  A    between atoms: _432  and  _433
REMARK  183  A    between atoms: _432  and  _435
REMARK  184  A    between atoms: _435  and  _436
REMARK  185  A    between atoms: _439  and  _441
REMARK  186  A    between atoms: _441  and  _442
REMARK  187  A    between atoms: _444  and  _446
REMARK  188  A    between atoms: _446  and  _447
REMARK  189  A    between atoms: _449  and  _451
REMARK  190  A    between atoms: _451  and  _452
REMARK  191  A    between atoms: _451  and  _454
REMARK  192  A    between atoms: _454  and  _455
REMARK  193  A    between atoms: _458  and  _460
REMARK  194  A    between atoms: _460  and  _461
REMARK  195  A    between atoms: _463  and  _465
REMARK  196  A    between atoms: _465  and  _466
REMARK  197  A    between atoms: _468  and  _470
REMARK  198  A    between atoms: _470  and  _471
REMARK  199  A    between atoms: _470  and  _473
REMARK  200  A    between atoms: _473  and  _474
REMARK  201  A    between atoms: _480  and  _482
REMARK  202  A    between atoms: _482  and  _483
REMARK  203  A    between atoms: _482  and  _485
REMARK  204  A    between atoms: _485  and  _486
REMARK  205  A    between atoms: _489  and  _491
REMARK  206  A    between atoms: _491  and  _492
REMARK  207  A    between atoms: _491  and  _494
REMARK  208  A    between atoms: _497  and  _499
REMARK  209  A    between atoms: _499  and  _500
REMARK  210  A    between atoms: _499  and  _502
REMARK  211  A    between atoms: _502  and  _503
REMARK  212  A    between atoms: _506  and  _508
REMARK  213  A    between atoms: _508  and  _509
REMARK  214  A    between atoms: _508  and  _511
REMARK  215  A    between atoms: _511  and  _512
REMARK  216  A    between atoms: _516  and  _517
REMARK  217  A    between atoms: _522  and  _524
REMARK  218  A    between atoms: _524  and  _525
REMARK  219  A    between atoms: _524  and  _527
REMARK  220  A    between atoms: _527  and  _528
REMARK  221  A    between atoms: _531  and  _533
REMARK  222  A    between atoms: _533  and  _534
REMARK  223  A    between atoms: _533  and  _536
REMARK  224  A    between atoms: _536  and  _537
REMARK  225  A    between atoms: _542  and  _544
REMARK  226  A    between atoms: _544  and  _545
REMARK  227  A    between atoms: _544  and  _547
REMARK  228  A    between atoms: _550  and  _552
REMARK  229  A    between atoms: _552  and  _553
REMARK  230  A    between atoms: _552  and  _555
REMARK  231  A    between atoms: _555  and  _556
REMARK  232  A    between atoms: _559  and  _561
REMARK  233  A    between atoms: _561  and  _562
REMARK  234  A    between atoms: _564  and  _566
REMARK  235  A    between atoms: _566  and  _567
REMARK  236  A    between atoms: _566  and  _569
REMARK  237  A    between atoms: _569  and  _570
REMARK  238  A    between atoms: _570  and  _571
REMARK  239  A    between atoms: _571  and  _572
REMARK                            x       y       z     vdW  Elec       q    Type
REMARK                         _______ _______ _______ _____ _____    ______ ____
ROOT
ATOM      1  O   HOH     1      21.013  22.030   6.400  0.00  0.00    +0.000 OA
ENDROOT
TORSDOF 0
REMARK  Name = ../refined-set-2016/4a6b/4a6b_pocket.pdb
REMARK  239 active torsions:
REMARK  status: ('A' for Active; 'I' for Inactive)
REMARK    1  A    between atoms: _1  and  _3
REMARK    2  A    between atoms: _3  and  _4
REMARK    3  A    between atoms: _3  and  _6
REMARK    4  A    between atoms: _6  and  _7
REMARK    5  A    between atoms: _7  and  _8
REMARK    6  A    between atoms: _8  and  _9
REMARK    7  A    between atoms: _18  and  _20
REMARK    8  A    between atoms: _20  and  _21
REMARK    9  A    between atoms: _20  and  _23
REMARK   10  A    between atoms: _23  and  _24
REMARK   11  A    between atoms: _27  and  _29
REMARK   12  A    between atoms: _29  and  _30
REMARK   13  A    between atoms: _29  and  _32
REMARK   14  A    between atoms: _32  and  _33
REMARK   15  A    between atoms: _36  and  _38
REMARK   16  A    between atoms: _38  and  _39
REMARK   17  A    between atoms: _38  and  _41
REMARK   18  A    between atoms: _41  and  _42
REMARK   19  A    between atoms: _45  and  _47
REMARK   20  A    between atoms: _47  and  _48
REMARK   21  A    between atoms: _47  and  _50
REMARK   22  A    between atoms: _50  and  _51
REMARK   23  A    between atoms: _54  and  _56
REMARK   24  A    between atoms: _56  and  _57
REMARK   25  A    between atoms: _59  and  _61
REMARK   26  A    between atoms: _61  and  _62
REMARK   27  A    between atoms: _65  and  _67
REMARK   28  A    between atoms: _67  and  _68
REMARK   29  A    between atoms: _67  and  _70
REMARK   30  A    between atoms: _70  and  _71
REMARK   31  A    between atoms: _74  and  _76
REMARK   32  A    between atoms: _76  and  _77
REMARK   33  A    between atoms: _76  and  _79
REMARK   34  A    between atoms: _79  and  _80
REMARK   35  A    between atoms: _83  and  _85
REMARK   36  A    between atoms: _85  and  _86
REMARK   37  A    between atoms: _85  and  _88
REMARK   38  A    between atoms: _88  and  _89
REMARK   39  A    between atoms: _92  and  _94
REMARK   40  A    between atoms: _94  and  _95
REMARK   41  A    between atoms: _94  and  _97
REMARK   42  A    between atoms: _100  and  _102
REMARK   43  A    between atoms: _102  and  _103
REMARK   44  A    between atoms: _102  and  _105
REMARK   45  A    between atoms: _105  and  _106
REMARK   46  A    between atoms: _106  and  _107
REMARK   47  A    between atoms: _107  and  _108
REMARK   48  A    between atoms: _108  and  _109
REMARK   49  A    between atoms: _113  and  _115
REMARK   50  A    between atoms: _115  and  _116
REMARK   51  A    between atoms: _115  and  _118
REMARK   52  A    between atoms: _118  and  _119
REMARK   53  A    between atoms: _119  and  _120
REMARK   54  A    between atoms: _122  and  _124
REMARK   55  A    between atoms: _124  and  _125
REMARK   56  A    between atoms: _124  and  _127
REMARK   57  A    between atoms: _127  and  _128
REMARK   58  A    between atoms: _131  and  _133
REMARK   59  A    between atoms: _133  and  _134
REMARK   60  A    between atoms: _136  and  _138
REMARK   61  A    between atoms: _138  and  _139
REMARK   62  A    between atoms: _141  and  _143
REMARK   63  A    between atoms: _143  and  _144
REMARK   64  A    between atoms: _143  and  _146
REMARK   65  A    between atoms: _146  and  _147
REMARK   66  A    between atoms: _150  and  _152
REMARK   67  A    between atoms: _152  and  _153
REMARK   68  A    between atoms: _155  and  _157
REMARK   69  A    between atoms: _157  and  _158
REMARK   70  A    between atoms: _160  and  _162
REMARK   71  A    between atoms: _162  and  _163
REMARK   72  A    between atoms: _162  and  _165
REMARK   73  A    between atoms: _165  and  _166
REMARK   74  A    between atoms: _172  and  _174
REMARK   75  A    between atoms: _174  and  _175
REMARK   76  A    between atoms: _174  and  _177
REMARK   77  A    between atoms: _177  and  _178
REMARK   78  A    between atoms: _181  and  _183
REMARK   79  A    between atoms: _183  and  _184
REMARK   80  A    between atoms: _183  and  _186
REMARK   81  A    between atoms: _189  and  _191
REMARK   82  A    between atoms: _191  and  _192
REMARK   83  A    between atoms: _191  and  _194
REMARK   84  A    between atoms: _194  and  _195
REMARK   85  A    between atoms: _198  and  _200
REMARK   86  A    between atoms: _200  and  _201
REMARK   87  A    between atoms: _200  and  _203
REMARK   88  A    between atoms: _203  and  _204
REMARK   89  A    between atoms: _208  and  _209
REMARK   90  A    between atoms: _214  and  _216
REMARK   91  A    between atoms: _216  and  _217
REMARK   92  A    between atoms: _216  and  _219
REMARK   93  A    between atoms: _219  and  _220
REMARK   94  A    between atoms: _223  and  _225
REMARK   95  A    between atoms: _225  and  _226
REMARK   96  A    between atoms: _225  and  _228
REMARK   97  A    between atoms: _228  and  _229
REMARK   98  A    between atoms: _234  and  _236
REMARK   99  A    between atoms: _236  and  _237
REMARK  100  A    between atoms: _236  and  _239
REMARK  101  A    between atoms: _242  and  _244
REMARK  102  A    between atoms: _244  and  _245
REMARK  103  A    between atoms: _244  and  _247
REMARK  104  A    between atoms: _247  and  _248
REMARK  105  A    between atoms: _251  and  _253
REMARK  106  A    between atoms: _253  and  _254
REMARK  107  A    between atoms: _256  and  _258
REMARK  108  A    between atoms: _258  and  _259
REMARK  109  A    between atoms: _258  and  _261
REMARK  110  A    between atoms: _261  and  _262
REMARK  111  A    between atoms: _262  and  _263
REMARK  112  A    between atoms: _263  and  _264
REMARK  113  A    between atoms: _273  and  _275
REMARK  114  A    between atoms: _275  and  _276
REMARK  115  A    between atoms: _275  and  _278
REMARK  116  A    between atoms: _278  and  _279
REMARK  117  A    between atoms: _284  and  _286
REMARK  118  A    between atoms: _286  and  _287
REMARK  119  A    between atoms: _286  and  _289
REMARK  120  A    between atoms: _289  and  _290
REMARK  121  A    between atoms: _290  and  _291
REMARK  122  A    between atoms: _291  and  _292
REMARK  123  A    between atoms: _301  and  _303
REMARK  124  A    between atoms: _303  and  _304
REMARK  125  A    between atoms: _303  and  _306
REMARK  126  A    between atoms: _306  and  _307
REMARK  127  A    between atoms: _310  and  _312
REMARK  128  A    between atoms: _312  and  _313
REMARK  129  A    between atoms: _316  and  _318
REMARK  130  A    between atoms: _318  and  _319
REMARK  131  A    between atoms: _318  and  _321
REMARK  132  A    between atoms: _321  and  _322
REMARK  133  A    between atoms: _325  and  _327
REMARK  134  A    between atoms: _327  and  _328
REMARK  135  A    between atoms: _327  and  _330
REMARK  136  A    between atoms: _330  and  _331
REMARK  137  A    between atoms: _334  and  _336
REMARK  138  A    between atoms: _336  and  _337
REMARK  139  A    between atoms: _336  and  _339
REMARK  140  A    between atoms: _339  and  _340
REMARK  141  A    between atoms: _343  and  _345
REMARK  142  A    between atoms: _345  and  _346
REMARK  143  A    between atoms: _345  and  _348
REMARK  144  A    between atoms: _348  and  _349
REMARK  145  A    between atoms: _352  and  _354
REMARK  146  A    between atoms: _354  and  _355
REMARK  147  A    between atoms: _357  and  _359
REMARK  148  A    between atoms: _359  and  _360
REMARK  149  A    between atoms: _363  and  _365
REMARK  150  A    between atoms: _365  and  _366
REMARK  151  A    between atoms: _365  and  _368
REMARK  152  A    between atoms: _368  and  _369
REMARK  153  A    between atoms: _372  and  _374
REMARK  154  A    between atoms: _374  and  _375
REMARK  155  A    between atoms: _374  and  _377
REMARK  156  A    between atoms: _377  and  _378
REMARK  157  A    between atoms: _381  and  _383
REMARK  158  A    between atoms: _383  and  _384
REMARK  159  A    between atoms: _383  and  _386
REMARK  160  A    between atoms: _386  and  _387
REMARK  161  A    between atoms: _390  and  _392
REMARK  162  A    between atoms: _392  and  _393
REMARK  163  A    between atoms: _392  and  _395
REMARK  164  A    between atoms: _398  and  _400
REMARK  165  A    between atoms: _400  and  _401
REMARK  166  A    between atoms: _400  and  _403
REMARK  167  A    between atoms: _403  and  _404
REMARK  168  A    between atoms: _404  and  _405
REMARK  169  A    between atoms: _408  and  _410
REMARK  170  A    between atoms: _410  and  _411
REMARK  171  A    between atoms: _410  and  _413
REMARK  172  A    between atoms: _413  and  _414
REMARK  173  A    between atoms: _414  and  _415
REMARK  174  A    between atoms: _415  and  _416
REMARK  175  A    between atoms: _416  and  _417
REMARK  176  A    between atoms: _421  and  _423
REMARK  177  A    between atoms: _423  and  _424
REMARK  178  A    between atoms: _423  and  _426
REMARK  179  A    between atoms: _426  and  _427
REMARK  180  A    between atoms: _427  and  _428
REMARK  181  A    between atoms: _430  and  _432
REMARK  182  A    between atoms: _432  and  _433
REMARK  183  A    between atoms: _432  and  _435
REMARK  184  A    between atoms: _435  and  _436
REMARK  185  A    between atoms: _439  and  _441
REMARK  186  A    between atoms: _441  and  _442
REMARK  187  A    between atoms: _444  and  _446
REMARK  188  A    between atoms: _446  and  _447
REMARK  189  A    between atoms: _449  and  _451
REMARK  190  A    between atoms: _451  and  _452
REMARK  191  A    between atoms: _451  and  _454
REMARK  192  A    between atoms: _454  and  _455
REMARK  193  A    between atoms: _458  and  _460
REMARK  194  A    between atoms: _460  and  _461
REMARK  195  A    between atoms: _463  and  _465
REMARK  196  A    between atoms: _465  and  _466
REMARK  197  A    between atoms: _468  and  _470
REMARK  198  A    between atoms: _470  and  _471
REMARK  199  A    between atoms: _470  and  _473
REMARK  200  A    between atoms: _473  and  _474
REMARK  201  A    between atoms: _480  and  _482
REMARK  202  A    between atoms: _482  and  _483
REMARK  203  A    between atoms: _482  and  _485
REMARK  204  A    between atoms: _485  and  _486
REMARK  205  A    between atoms: _489  and  _491
REMARK  206  A    between atoms: _491  and  _492
REMARK  207  A    between atoms: _491  and  _494
REMARK  208  A    between atoms: _497  and  _499
REMARK  209  A    between atoms: _499  and  _500
REMARK  210  A    between atoms: _499  and  _502
REMARK  211  A    between atoms: _502  and  _503
REMARK  212  A    between atoms: _506  and  _508
REMARK  213  A    between atoms: _508  and  _509
REMARK  214  A    between atoms: _508  and  _511
REMARK  215  A    between atoms: _511  and  _512
REMARK  216  A    between atoms: _516  and  _517
REMARK  217  A    between atoms: _522  and  _524
REMARK  218  A    between atoms: _524  and  _525
REMARK  219  A    between atoms: _524  and  _527
REMARK  220  A    between atoms: _527  and  _528
REMARK  221  A    between atoms: _531  and  _533
REMARK  222  A    between atoms: _533  and  _534
REMARK  223  A    between atoms: _533  and  _536
REMARK  224  A    between atoms: _536  and  _537
REMARK  225  A    between atoms: _542  and  _544
REMARK  226  A    between atoms: _544  and  _545
REMARK  227  A    between atoms: _544  and  _547
REMARK  228  A    between atoms: _550  and  _552
REMARK  229  A    between atoms: _552  and  _553
REMARK  230  A    between atoms: _552  and  _555
REMARK  231  A    between atoms: _555  and  _556
REMARK  232  A    between atoms: _559  and  _561
REMARK  233  A    between atoms: _561  and  _562
REMARK  234  A    between atoms: _564  and  _566
REMARK  235  A    between atoms: _566  and  _567
REMARK  236  A    between atoms: _566  and  _569
REMARK  237  A    between atoms: _569  and  _570
REMARK  238  A    between atoms: _570  and  _571
REMARK  239  A    between atoms: _571  and  _572
REMARK                            x       y       z     vdW  Elec       q    Type
REMARK                         _______ _______ _______ _____ _____    ______ ____
ROOT
ATOM      1  O   HOH     1      21.331  21.510   9.299  0.00  0.00    +0.000 OA
ENDROOT
TORSDOF 0
REMARK  Name = ../refined-set-2016/4a6b/4a6b_pocket.pdb
REMARK  239 active torsions:
REMARK  status: ('A' for Active; 'I' for Inactive)
REMARK    1  A    between atoms: _1  and  _3
REMARK    2  A    between atoms: _3  and  _4
REMARK    3  A    between atoms: _3  and  _6
REMARK    4  A    between atoms: _6  and  _7
REMARK    5  A    between atoms: _7  and  _8
REMARK    6  A    between atoms: _8  and  _9
REMARK    7  A    between atoms: _18  and  _20
REMARK    8  A    between atoms: _20  and  _21
REMARK    9  A    between atoms: _20  and  _23
REMARK   10  A    between atoms: _23  and  _24
REMARK   11  A    between atoms: _27  and  _29
REMARK   12  A    between atoms: _29  and  _30
REMARK   13  A    between atoms: _29  and  _32
REMARK   14  A    between atoms: _32  and  _33
REMARK   15  A    between atoms: _36  and  _38
REMARK   16  A    between atoms: _38  and  _39
REMARK   17  A    between atoms: _38  and  _41
REMARK   18  A    between atoms: _41  and  _42
REMARK   19  A    between atoms: _45  and  _47
REMARK   20  A    between atoms: _47  and  _48
REMARK   21  A    between atoms: _47  and  _50
REMARK   22  A    between atoms: _50  and  _51
REMARK   23  A    between atoms: _54  and  _56
REMARK   24  A    between atoms: _56  and  _57
REMARK   25  A    between atoms: _59  and  _61
REMARK   26  A    between atoms: _61  and  _62
REMARK   27  A    between atoms: _65  and  _67
REMARK   28  A    between atoms: _67  and  _68
REMARK   29  A    between atoms: _67  and  _70
REMARK   30  A    between atoms: _70  and  _71
REMARK   31  A    between atoms: _74  and  _76
REMARK   32  A    between atoms: _76  and  _77
REMARK   33  A    between atoms: _76  and  _79
REMARK   34  A    between atoms: _79  and  _80
REMARK   35  A    between atoms: _83  and  _85
REMARK   36  A    between atoms: _85  and  _86
REMARK   37  A    between atoms: _85  and  _88
REMARK   38  A    between atoms: _88  and  _89
REMARK   39  A    between atoms: _92  and  _94
REMARK   40  A    between atoms: _94  and  _95
REMARK   41  A    between atoms: _94  and  _97
REMARK   42  A    between atoms: _100  and  _102
REMARK   43  A    between atoms: _102  and  _103
REMARK   44  A    between atoms: _102  and  _105
REMARK   45  A    between atoms: _105  and  _106
REMARK   46  A    between atoms: _106  and  _107
REMARK   47  A    between atoms: _107  and  _108
REMARK   48  A    between atoms: _108  and  _109
REMARK   49  A    between atoms: _113  and  _115
REMARK   50  A    between atoms: _115  and  _116
REMARK   51  A    between atoms: _115  and  _118
REMARK   52  A    between atoms: _118  and  _119
REMARK   53  A    between atoms: _119  and  _120
REMARK   54  A    between atoms: _122  and  _124
REMARK   55  A    between atoms: _124  and  _125
REMARK   56  A    between atoms: _124  and  _127
REMARK   57  A    between atoms: _127  and  _128
REMARK   58  A    between atoms: _131  and  _133
REMARK   59  A    between atoms: _133  and  _134
REMARK   60  A    between atoms: _136  and  _138
REMARK   61  A    between atoms: _138  and  _139
REMARK   62  A    between atoms: _141  and  _143
REMARK   63  A    between atoms: _143  and  _144
REMARK   64  A    between atoms: _143  and  _146
REMARK   65  A    between atoms: _146  and  _147
REMARK   66  A    between atoms: _150  and  _152
REMARK   67  A    between atoms: _152  and  _153
REMARK   68  A    between atoms: _155  and  _157
REMARK   69  A    between atoms: _157  and  _158
REMARK   70  A    between atoms: _160  and  _162
REMARK   71  A    between atoms: _162  and  _163
REMARK   72  A    between atoms: _162  and  _165
REMARK   73  A    between atoms: _165  and  _166
REMARK   74  A    between atoms: _172  and  _174
REMARK   75  A    between atoms: _174  and  _175
REMARK   76  A    between atoms: _174  and  _177
REMARK   77  A    between atoms: _177  and  _178
REMARK   78  A    between atoms: _181  and  _183
REMARK   79  A    between atoms: _183  and  _184
REMARK   80  A    between atoms: _183  and  _186
REMARK   81  A    between atoms: _189  and  _191
REMARK   82  A    between atoms: _191  and  _192
REMARK   83  A    between atoms: _191  and  _194
REMARK   84  A    between atoms: _194  and  _195
REMARK   85  A    between atoms: _198  and  _200
REMARK   86  A    between atoms: _200  and  _201
REMARK   87  A    between atoms: _200  and  _203
REMARK   88  A    between atoms: _203  and  _204
REMARK   89  A    between atoms: _208  and  _209
REMARK   90  A    between atoms: _214  and  _216
REMARK   91  A    between atoms: _216  and  _217
REMARK   92  A    between atoms: _216  and  _219
REMARK   93  A    between atoms: _219  and  _220
REMARK   94  A    between atoms: _223  and  _225
REMARK   95  A    between atoms: _225  and  _226
REMARK   96  A    between atoms: _225  and  _228
REMARK   97  A    between atoms: _228  and  _229
REMARK   98  A    between atoms: _234  and  _236
REMARK   99  A    between atoms: _236  and  _237
REMARK  100  A    between atoms: _236  and  _239
REMARK  101  A    between atoms: _242  and  _244
REMARK  102  A    between atoms: _244  and  _245
REMARK  103  A    between atoms: _244  and  _247
REMARK  104  A    between atoms: _247  and  _248
REMARK  105  A    between atoms: _251  and  _253
REMARK  106  A    between atoms: _253  and  _254
REMARK  107  A    between atoms: _256  and  _258
REMARK  108  A    between atoms: _258  and  _259
REMARK  109  A    between atoms: _258  and  _261
REMARK  110  A    between atoms: _261  and  _262
REMARK  111  A    between atoms: _262  and  _263
REMARK  112  A    between atoms: _263  and  _264
REMARK  113  A    between atoms: _273  and  _275
REMARK  114  A    between atoms: _275  and  _276
REMARK  115  A    between atoms: _275  and  _278
REMARK  116  A    between atoms: _278  and  _279
REMARK  117  A    between atoms: _284  and  _286
REMARK  118  A    between atoms: _286  and  _287
REMARK  119  A    between atoms: _286  and  _289
REMARK  120  A    between atoms: _289  and  _290
REMARK  121  A    between atoms: _290  and  _291
REMARK  122  A    between atoms: _291  and  _292
REMARK  123  A    between atoms: _301  and  _303
REMARK  124  A    between atoms: _303  and  _304
REMARK  125  A    between atoms: _303  and  _306
REMARK  126  A    between atoms: _306  and  _307
REMARK  127  A    between atoms: _310  and  _312
REMARK  128  A    between atoms: _312  and  _313
REMARK  129  A    between atoms: _316  and  _318
REMARK  130  A    between atoms: _318  and  _319
REMARK  131  A    between atoms: _318  and  _321
REMARK  132  A    between atoms: _321  and  _322
REMARK  133  A    between atoms: _325  and  _327
REMARK  134  A    between atoms: _327  and  _328
REMARK  135  A    between atoms: _327  and  _330
REMARK  136  A    between atoms: _330  and  _331
REMARK  137  A    between atoms: _334  and  _336
REMARK  138  A    between atoms: _336  and  _337
REMARK  139  A    between atoms: _336  and  _339
REMARK  140  A    between atoms: _339  and  _340
REMARK  141  A    between atoms: _343  and  _345
REMARK  142  A    between atoms: _345  and  _346
REMARK  143  A    between atoms: _345  and  _348
REMARK  144  A    between atoms: _348  and  _349
REMARK  145  A    between atoms: _352  and  _354
REMARK  146  A    between atoms: _354  and  _355
REMARK  147  A    between atoms: _357  and  _359
REMARK  148  A    between atoms: _359  and  _360
REMARK  149  A    between atoms: _363  and  _365
REMARK  150  A    between atoms: _365  and  _366
REMARK  151  A    between atoms: _365  and  _368
REMARK  152  A    between atoms: _368  and  _369
REMARK  153  A    between atoms: _372  and  _374
REMARK  154  A    between atoms: _374  and  _375
REMARK  155  A    between atoms: _374  and  _377
REMARK  156  A    between atoms: _377  and  _378
REMARK  157  A    between atoms: _381  and  _383
REMARK  158  A    between atoms: _383  and  _384
REMARK  159  A    between atoms: _383  and  _386
REMARK  160  A    between atoms: _386  and  _387
REMARK  161  A    between atoms: _390  and  _392
REMARK  162  A    between atoms: _392  and  _393
REMARK  163  A    between atoms: _392  and  _395
REMARK  164  A    between atoms: _398  and  _400
REMARK  165  A    between atoms: _400  and  _401
REMARK  166  A    between atoms: _400  and  _403
REMARK  167  A    between atoms: _403  and  _404
REMARK  168  A    between atoms: _404  and  _405
REMARK  169  A    between atoms: _408  and  _410
REMARK  170  A    between atoms: _410  and  _411
REMARK  171  A    between atoms: _410  and  _413
REMARK  172  A    between atoms: _413  and  _414
REMARK  173  A    between atoms: _414  and  _415
REMARK  174  A    between atoms: _415  and  _416
REMARK  175  A    between atoms: _416  and  _417
REMARK  176  A    between atoms: _421  and  _423
REMARK  177  A    between atoms: _423  and  _424
REMARK  178  A    between atoms: _423  and  _426
REMARK  179  A    between atoms: _426  and  _427
REMARK  180  A    between atoms: _427  and  _428
REMARK  181  A    between atoms: _430  and  _432
REMARK  182  A    between atoms: _432  and  _433
REMARK  183  A    between atoms: _432  and  _435
REMARK  184  A    between atoms: _435  and  _436
REMARK  185  A    between atoms: _439  and  _441
REMARK  186  A    between atoms: _441  and  _442
REMARK  187  A    between atoms: _444  and  _446
REMARK  188  A    between atoms: _446  and  _447
REMARK  189  A    between atoms: _449  and  _451
REMARK  190  A    between atoms: _451  and  _452
REMARK  191  A    between atoms: _451  and  _454
REMARK  192  A    between atoms: _454  and  _455
REMARK  193  A    between atoms: _458  and  _460
REMARK  194  A    between atoms: _460  and  _461
REMARK  195  A    between atoms: _463  and  _465
REMARK  196  A    between atoms: _465  and  _466
REMARK  197  A    between atoms: _468  and  _470
REMARK  198  A    between atoms: _470  and  _471
REMARK  199  A    between atoms: _470  and  _473
REMARK  200  A    between atoms: _473  and  _474
REMARK  201  A    between atoms: _480  and  _482
REMARK  202  A    between atoms: _482  and  _483
REMARK  203  A    between atoms: _482  and  _485
REMARK  204  A    between atoms: _485  and  _486
REMARK  205  A    between atoms: _489  and  _491
REMARK  206  A    between atoms: _491  and  _492
REMARK  207  A    between atoms: _491  and  _494
REMARK  208  A    between atoms: _497  and  _499
REMARK  209  A    between atoms: _499  and  _500
REMARK  210  A    between atoms: _499  and  _502
REMARK  211  A    between atoms: _502  and  _503
REMARK  212  A    between atoms: _506  and  _508
REMARK  213  A    between atoms: _508  and  _509
REMARK  214  A    between atoms: _508  and  _511
REMARK  215  A    between atoms: _511  and  _512
REMARK  216  A    between atoms: _516  and  _517
REMARK  217  A    between atoms: _522  and  _524
REMARK  218  A    between atoms: _524  and  _525
REMARK  219  A    between atoms: _524  and  _527
REMARK  220  A    between atoms: _527  and  _528
REMARK  221  A    between atoms: _531  and  _533
REMARK  222  A    between atoms: _533  and  _534
REMARK  223  A    between atoms: _533  and  _536
REMARK  224  A    between atoms: _536  and  _537
REMARK  225  A    between atoms: _542  and  _544
REMARK  226  A    between atoms: _544  and  _545
REMARK  227  A    between atoms: _544  and  _547
REMARK  228  A    between atoms: _550  and  _552
REMARK  229  A    between atoms: _552  and  _553
REMARK  230  A    between atoms: _552  and  _555
REMARK  231  A    between atoms: _555  and  _556
REMARK  232  A    between atoms: _559  and  _561
REMARK  233  A    between atoms: _561  and  _562
REMARK  234  A    between atoms: _564  and  _566
REMARK  235  A    between atoms: _566  and  _567
REMARK  236  A    between atoms: _566  and  _569
REMARK  237  A    between atoms: _569  and  _570
REMARK  238  A    between atoms: _570  and  _571
REMARK  239  A    between atoms: _571  and  _572
REMARK                            x       y       z     vdW  Elec       q    Type
REMARK                         _______ _______ _______ _____ _____    ______ ____
ROOT
ATOM      1  O   HOH     1      23.740  17.399  11.236  0.00  0.00    +0.000 OA
ENDROOT
TORSDOF 0
REMARK  Name = ../refined-set-2016/4a6b/4a6b_pocket.pdb
REMARK  239 active torsions:
REMARK  status: ('A' for Active; 'I' for Inactive)
REMARK    1  A    between atoms: _1  and  _3
REMARK    2  A    between atoms: _3  and  _4
REMARK    3  A    between atoms: _3  and  _6
REMARK    4  A    between atoms: _6  and  _7
REMARK    5  A    between atoms: _7  and  _8
REMARK    6  A    between atoms: _8  and  _9
REMARK    7  A    between atoms: _18  and  _20
REMARK    8  A    between atoms: _20  and  _21
REMARK    9  A    between atoms: _20  and  _23
REMARK   10  A    between atoms: _23  and  _24
REMARK   11  A    between atoms: _27  and  _29
REMARK   12  A    between atoms: _29  and  _30
REMARK   13  A    between atoms: _29  and  _32
REMARK   14  A    between atoms: _32  and  _33
REMARK   15  A    between atoms: _36  and  _38
REMARK   16  A    between atoms: _38  and  _39
REMARK   17  A    between atoms: _38  and  _41
REMARK   18  A    between atoms: _41  and  _42
REMARK   19  A    between atoms: _45  and  _47
REMARK   20  A    between atoms: _47  and  _48
REMARK   21  A    between atoms: _47  and  _50
REMARK   22  A    between atoms: _50  and  _51
REMARK   23  A    between atoms: _54  and  _56
REMARK   24  A    between atoms: _56  and  _57
REMARK   25  A    between atoms: _59  and  _61
REMARK   26  A    between atoms: _61  and  _62
REMARK   27  A    between atoms: _65  and  _67
REMARK   28  A    between atoms: _67  and  _68
REMARK   29  A    between atoms: _67  and  _70
REMARK   30  A    between atoms: _70  and  _71
REMARK   31  A    between atoms: _74  and  _76
REMARK   32  A    between atoms: _76  and  _77
REMARK   33  A    between atoms: _76  and  _79
REMARK   34  A    between atoms: _79  and  _80
REMARK   35  A    between atoms: _83  and  _85
REMARK   36  A    between atoms: _85  and  _86
REMARK   37  A    between atoms: _85  and  _88
REMARK   38  A    between atoms: _88  and  _89
REMARK   39  A    between atoms: _92  and  _94
REMARK   40  A    between atoms: _94  and  _95
REMARK   41  A    between atoms: _94  and  _97
REMARK   42  A    between atoms: _100  and  _102
REMARK   43  A    between atoms: _102  and  _103
REMARK   44  A    between atoms: _102  and  _105
REMARK   45  A    between atoms: _105  and  _106
REMARK   46  A    between atoms: _106  and  _107
REMARK   47  A    between atoms: _107  and  _108
REMARK   48  A    between atoms: _108  and  _109
REMARK   49  A    between atoms: _113  and  _115
REMARK   50  A    between atoms: _115  and  _116
REMARK   51  A    between atoms: _115  and  _118
REMARK   52  A    between atoms: _118  and  _119
REMARK   53  A    between atoms: _119  and  _120
REMARK   54  A    between atoms: _122  and  _124
REMARK   55  A    between atoms: _124  and  _125
REMARK   56  A    between atoms: _124  and  _127
REMARK   57  A    between atoms: _127  and  _128
REMARK   58  A    between atoms: _131  and  _133
REMARK   59  A    between atoms: _133  and  _134
REMARK   60  A    between atoms: _136  and  _138
REMARK   61  A    between atoms: _138  and  _139
REMARK   62  A    between atoms: _141  and  _143
REMARK   63  A    between atoms: _143  and  _144
REMARK   64  A    between atoms: _143  and  _146
REMARK   65  A    between atoms: _146  and  _147
REMARK   66  A    between atoms: _150  and  _152
REMARK   67  A    between atoms: _152  and  _153
REMARK   68  A    between atoms: _155  and  _157
REMARK   69  A    between atoms: _157  and  _158
REMARK   70  A    between atoms: _160  and  _162
REMARK   71  A    between atoms: _162  and  _163
REMARK   72  A    between atoms: _162  and  _165
REMARK   73  A    between atoms: _165  and  _166
REMARK   74  A    between atoms: _172  and  _174
REMARK   75  A    between atoms: _174  and  _175
REMARK   76  A    between atoms: _174  and  _177
REMARK   77  A    between atoms: _177  and  _178
REMARK   78  A    between atoms: _181  and  _183
REMARK   79  A    between atoms: _183  and  _184
REMARK   80  A    between atoms: _183  and  _186
REMARK   81  A    between atoms: _189  and  _191
REMARK   82  A    between atoms: _191  and  _192
REMARK   83  A    between atoms: _191  and  _194
REMARK   84  A    between atoms: _194  and  _195
REMARK   85  A    between atoms: _198  and  _200
REMARK   86  A    between atoms: _200  and  _201
REMARK   87  A    between atoms: _200  and  _203
REMARK   88  A    between atoms: _203  and  _204
REMARK   89  A    between atoms: _208  and  _209
REMARK   90  A    between atoms: _214  and  _216
REMARK   91  A    between atoms: _216  and  _217
REMARK   92  A    between atoms: _216  and  _219
REMARK   93  A    between atoms: _219  and  _220
REMARK   94  A    between atoms: _223  and  _225
REMARK   95  A    between atoms: _225  and  _226
REMARK   96  A    between atoms: _225  and  _228
REMARK   97  A    between atoms: _228  and  _229
REMARK   98  A    between atoms: _234  and  _236
REMARK   99  A    between atoms: _236  and  _237
REMARK  100  A    between atoms: _236  and  _239
REMARK  101  A    between atoms: _242  and  _244
REMARK  102  A    between atoms: _244  and  _245
REMARK  103  A    between atoms: _244  and  _247
REMARK  104  A    between atoms: _247  and  _248
REMARK  105  A    between atoms: _251  and  _253
REMARK  106  A    between atoms: _253  and  _254
REMARK  107  A    between atoms: _256  and  _258
REMARK  108  A    between atoms: _258  and  _259
REMARK  109  A    between atoms: _258  and  _261
REMARK  110  A    between atoms: _261  and  _262
REMARK  111  A    between atoms: _262  and  _263
REMARK  112  A    between atoms: _263  and  _264
REMARK  113  A    between atoms: _273  and  _275
REMARK  114  A    between atoms: _275  and  _276
REMARK  115  A    between atoms: _275  and  _278
REMARK  116  A    between atoms: _278  and  _279
REMARK  117  A    between atoms: _284  and  _286
REMARK  118  A    between atoms: _286  and  _287
REMARK  119  A    between atoms: _286  and  _289
REMARK  120  A    between atoms: _289  and  _290
REMARK  121  A    between atoms: _290  and  _291
REMARK  122  A    between atoms: _291  and  _292
REMARK  123  A    between atoms: _301  and  _303
REMARK  124  A    between atoms: _303  and  _304
REMARK  125  A    between atoms: _303  and  _306
REMARK  126  A    between atoms: _306  and  _307
REMARK  127  A    between atoms: _310  and  _312
REMARK  128  A    between atoms: _312  and  _313
REMARK  129  A    between atoms: _316  and  _318
REMARK  130  A    between atoms: _318  and  _319
REMARK  131  A    between atoms: _318  and  _321
REMARK  132  A    between atoms: _321  and  _322
REMARK  133  A    between atoms: _325  and  _327
REMARK  134  A    between atoms: _327  and  _328
REMARK  135  A    between atoms: _327  and  _330
REMARK  136  A    between atoms: _330  and  _331
REMARK  137  A    between atoms: _334  and  _336
REMARK  138  A    between atoms: _336  and  _337
REMARK  139  A    between atoms: _336  and  _339
REMARK  140  A    between atoms: _339  and  _340
REMARK  141  A    between atoms: _343  and  _345
REMARK  142  A    between atoms: _345  and  _346
REMARK  143  A    between atoms: _345  and  _348
REMARK  144  A    between atoms: _348  and  _349
REMARK  145  A    between atoms: _352  and  _354
REMARK  146  A    between atoms: _354  and  _355
REMARK  147  A    between atoms: _357  and  _359
REMARK  148  A    between atoms: _359  and  _360
REMARK  149  A    between atoms: _363  and  _365
REMARK  150  A    between atoms: _365  and  _366
REMARK  151  A    between atoms: _365  and  _368
REMARK  152  A    between atoms: _368  and  _369
REMARK  153  A    between atoms: _372  and  _374
REMARK  154  A    between atoms: _374  and  _375
REMARK  155  A    between atoms: _374  and  _377
REMARK  156  A    between atoms: _377  and  _378
REMARK  157  A    between atoms: _381  and  _383
REMARK  158  A    between atoms: _383  and  _384
REMARK  159  A    between atoms: _383  and  _386
REMARK  160  A    between atoms: _386  and  _387
REMARK  161  A    between atoms: _390  and  _392
REMARK  162  A    between atoms: _392  and  _393
REMARK  163  A    between atoms: _392  and  _395
REMARK  164  A    between atoms: _398  and  _400
REMARK  165  A    between atoms: _400  and  _401
REMARK  166  A    between atoms: _400  and  _403
REMARK  167  A    between atoms: _403  and  _404
REMARK  168  A    between atoms: _404  and  _405
REMARK  169  A    between atoms: _408  and  _410
REMARK  170  A    between atoms: _410  and  _411
REMARK  171  A    between atoms: _410  and  _413
REMARK  172  A    between atoms: _413  and  _414
REMARK  173  A    between atoms: _414  and  _415
REMARK  174  A    between atoms: _415  and  _416
REMARK  175  A    between atoms: _416  and  _417
REMARK  176  A    between atoms: _421  and  _423
REMARK  177  A    between atoms: _423  and  _424
REMARK  178  A    between atoms: _423  and  _426
REMARK  179  A    between atoms: _426  and  _427
REMARK  180  A    between atoms: _427  and  _428
REMARK  181  A    between atoms: _430  and  _432
REMARK  182  A    between atoms: _432  and  _433
REMARK  183  A    between atoms: _432  and  _435
REMARK  184  A    between atoms: _435  and  _436
REMARK  185  A    between atoms: _439  and  _441
REMARK  186  A    between atoms: _441  and  _442
REMARK  187  A    between atoms: _444  and  _446
REMARK  188  A    between atoms: _446  and  _447
REMARK  189  A    between atoms: _449  and  _451
REMARK  190  A    between atoms: _451  and  _452
REMARK  191  A    between atoms: _451  and  _454
REMARK  192  A    between atoms: _454  and  _455
REMARK  193  A    between atoms: _458  and  _460
REMARK  194  A    between atoms: _460  and  _461
REMARK  195  A    between atoms: _463  and  _465
REMARK  196  A    between atoms: _465  and  _466
REMARK  197  A    between atoms: _468  and  _470
REMARK  198  A    between atoms: _470  and  _471
REMARK  199  A    between atoms: _470  and  _473
REMARK  200  A    between atoms: _473  and  _474
REMARK  201  A    between atoms: _480  and  _482
REMARK  202  A    between atoms: _482  and  _483
REMARK  203  A    between atoms: _482  and  _485
REMARK  204  A    between atoms: _485  and  _486
REMARK  205  A    between atoms: _489  and  _491
REMARK  206  A    between atoms: _491  and  _492
REMARK  207  A    between atoms: _491  and  _494
REMARK  208  A    between atoms: _497  and  _499
REMARK  209  A    between atoms: _499  and  _500
REMARK  210  A    between atoms: _499  and  _502
REMARK  211  A    between atoms: _502  and  _503
REMARK  212  A    between atoms: _506  and  _508
REMARK  213  A    between atoms: _508  and  _509
REMARK  214  A    between atoms: _508  and  _511
REMARK  215  A    between atoms: _511  and  _512
REMARK  216  A    between atoms: _516  and  _517
REMARK  217  A    between atoms: _522  and  _524
REMARK  218  A    between atoms: _524  and  _525
REMARK  219  A    between atoms: _524  and  _527
REMARK  220  A    between atoms: _527  and  _528
REMARK  221  A    between atoms: _531  and  _533
REMARK  222  A    between atoms: _533  and  _534
REMARK  223  A    between atoms: _533  and  _536
REMARK  224  A    between atoms: _536  and  _537
REMARK  225  A    between atoms: _542  and  _544
REMARK  226  A    between atoms: _544  and  _545
REMARK  227  A    between atoms: _544  and  _547
REMARK  228  A    between atoms: _550  and  _552
REMARK  229  A    between atoms: _552  and  _553
REMARK  230  A    between atoms: _552  and  _555
REMARK  231  A    between atoms: _555  and  _556
REMARK  232  A    between atoms: _559  and  _561
REMARK  233  A    between atoms: _561  and  _562
REMARK  234  A    between atoms: _564  and  _566
REMARK  235  A    between atoms: _566  and  _567
REMARK  236  A    between atoms: _566  and  _569
REMARK  237  A    between atoms: _569  and  _570
REMARK  238  A    between atoms: _570  and  _571
REMARK  239  A    between atoms: _571  and  _572
REMARK                            x       y       z     vdW  Elec       q    Type
REMARK                         _______ _______ _______ _____ _____    ______ ____
ROOT
ATOM      1  O   HOH     1       0.166  24.763   5.161  0.00  0.00    +0.000 OA
ENDROOT
TORSDOF 0
REMARK  Name = ../refined-set-2016/4a6b/4a6b_pocket.pdb
REMARK  239 active torsions:
REMARK  status: ('A' for Active; 'I' for Inactive)
REMARK    1  A    between atoms: _1  and  _3
REMARK    2  A    between atoms: _3  and  _4
REMARK    3  A    between atoms: _3  and  _6
REMARK    4  A    between atoms: _6  and  _7
REMARK    5  A    between atoms: _7  and  _8
REMARK    6  A    between atoms: _8  and  _9
REMARK    7  A    between atoms: _18  and  _20
REMARK    8  A    between atoms: _20  and  _21
REMARK    9  A    between atoms: _20  and  _23
REMARK   10  A    between atoms: _23  and  _24
REMARK   11  A    between atoms: _27  and  _29
REMARK   12  A    between atoms: _29  and  _30
REMARK   13  A    between atoms: _29  and  _32
REMARK   14  A    between atoms: _32  and  _33
REMARK   15  A    between atoms: _36  and  _38
REMARK   16  A    between atoms: _38  and  _39
REMARK   17  A    between atoms: _38  and  _41
REMARK   18  A    between atoms: _41  and  _42
REMARK   19  A    between atoms: _45  and  _47
REMARK   20  A    between atoms: _47  and  _48
REMARK   21  A    between atoms: _47  and  _50
REMARK   22  A    between atoms: _50  and  _51
REMARK   23  A    between atoms: _54  and  _56
REMARK   24  A    between atoms: _56  and  _57
REMARK   25  A    between atoms: _59  and  _61
REMARK   26  A    between atoms: _61  and  _62
REMARK   27  A    between atoms: _65  and  _67
REMARK   28  A    between atoms: _67  and  _68
REMARK   29  A    between atoms: _67  and  _70
REMARK   30  A    between atoms: _70  and  _71
REMARK   31  A    between atoms: _74  and  _76
REMARK   32  A    between atoms: _76  and  _77
REMARK   33  A    between atoms: _76  and  _79
REMARK   34  A    between atoms: _79  and  _80
REMARK   35  A    between atoms: _83  and  _85
REMARK   36  A    between atoms: _85  and  _86
REMARK   37  A    between atoms: _85  and  _88
REMARK   38  A    between atoms: _88  and  _89
REMARK   39  A    between atoms: _92  and  _94
REMARK   40  A    between atoms: _94  and  _95
REMARK   41  A    between atoms: _94  and  _97
REMARK   42  A    between atoms: _100  and  _102
REMARK   43  A    between atoms: _102  and  _103
REMARK   44  A    between atoms: _102  and  _105
REMARK   45  A    between atoms: _105  and  _106
REMARK   46  A    between atoms: _106  and  _107
REMARK   47  A    between atoms: _107  and  _108
REMARK   48  A    between atoms: _108  and  _109
REMARK   49  A    between atoms: _113  and  _115
REMARK   50  A    between atoms: _115  and  _116
REMARK   51  A    between atoms: _115  and  _118
REMARK   52  A    between atoms: _118  and  _119
REMARK   53  A    between atoms: _119  and  _120
REMARK   54  A    between atoms: _122  and  _124
REMARK   55  A    between atoms: _124  and  _125
REMARK   56  A    between atoms: _124  and  _127
REMARK   57  A    between atoms: _127  and  _128
REMARK   58  A    between atoms: _131  and  _133
REMARK   59  A    between atoms: _133  and  _134
REMARK   60  A    between atoms: _136  and  _138
REMARK   61  A    between atoms: _138  and  _139
REMARK   62  A    between atoms: _141  and  _143
REMARK   63  A    between atoms: _143  and  _144
REMARK   64  A    between atoms: _143  and  _146
REMARK   65  A    between atoms: _146  and  _147
REMARK   66  A    between atoms: _150  and  _152
REMARK   67  A    between atoms: _152  and  _153
REMARK   68  A    between atoms: _155  and  _157
REMARK   69  A    between atoms: _157  and  _158
REMARK   70  A    between atoms: _160  and  _162
REMARK   71  A    between atoms: _162  and  _163
REMARK   72  A    between atoms: _162  and  _165
REMARK   73  A    between atoms: _165  and  _166
REMARK   74  A    between atoms: _172  and  _174
REMARK   75  A    between atoms: _174  and  _175
REMARK   76  A    between atoms: _174  and  _177
REMARK   77  A    between atoms: _177  and  _178
REMARK   78  A    between atoms: _181  and  _183
REMARK   79  A    between atoms: _183  and  _184
REMARK   80  A    between atoms: _183  and  _186
REMARK   81  A    between atoms: _189  and  _191
REMARK   82  A    between atoms: _191  and  _192
REMARK   83  A    between atoms: _191  and  _194
REMARK   84  A    between atoms: _194  and  _195
REMARK   85  A    between atoms: _198  and  _200
REMARK   86  A    between atoms: _200  and  _201
REMARK   87  A    between atoms: _200  and  _203
REMARK   88  A    between atoms: _203  and  _204
REMARK   89  A    between atoms: _208  and  _209
REMARK   90  A    between atoms: _214  and  _216
REMARK   91  A    between atoms: _216  and  _217
REMARK   92  A    between atoms: _216  and  _219
REMARK   93  A    between atoms: _219  and  _220
REMARK   94  A    between atoms: _223  and  _225
REMARK   95  A    between atoms: _225  and  _226
REMARK   96  A    between atoms: _225  and  _228
REMARK   97  A    between atoms: _228  and  _229
REMARK   98  A    between atoms: _234  and  _236
REMARK   99  A    between atoms: _236  and  _237
REMARK  100  A    between atoms: _236  and  _239
REMARK  101  A    between atoms: _242  and  _244
REMARK  102  A    between atoms: _244  and  _245
REMARK  103  A    between atoms: _244  and  _247
REMARK  104  A    between atoms: _247  and  _248
REMARK  105  A    between atoms: _251  and  _253
REMARK  106  A    between atoms: _253  and  _254
REMARK  107  A    between atoms: _256  and  _258
REMARK  108  A    between atoms: _258  and  _259
REMARK  109  A    between atoms: _258  and  _261
REMARK  110  A    between atoms: _261  and  _262
REMARK  111  A    between atoms: _262  and  _263
REMARK  112  A    between atoms: _263  and  _264
REMARK  113  A    between atoms: _273  and  _275
REMARK  114  A    between atoms: _275  and  _276
REMARK  115  A    between atoms: _275  and  _278
REMARK  116  A    between atoms: _278  and  _279
REMARK  117  A    between atoms: _284  and  _286
REMARK  118  A    between atoms: _286  and  _287
REMARK  119  A    between atoms: _286  and  _289
REMARK  120  A    between atoms: _289  and  _290
REMARK  121  A    between atoms: _290  and  _291
REMARK  122  A    between atoms: _291  and  _292
REMARK  123  A    between atoms: _301  and  _303
REMARK  124  A    between atoms: _303  and  _304
REMARK  125  A    between atoms: _303  and  _306
REMARK  126  A    between atoms: _306  and  _307
REMARK  127  A    between atoms: _310  and  _312
REMARK  128  A    between atoms: _312  and  _313
REMARK  129  A    between atoms: _316  and  _318
REMARK  130  A    between atoms: _318  and  _319
REMARK  131  A    between atoms: _318  and  _321
REMARK  132  A    between atoms: _321  and  _322
REMARK  133  A    between atoms: _325  and  _327
REMARK  134  A    between atoms: _327  and  _328
REMARK  135  A    between atoms: _327  and  _330
REMARK  136  A    between atoms: _330  and  _331
REMARK  137  A    between atoms: _334  and  _336
REMARK  138  A    between atoms: _336  and  _337
REMARK  139  A    between atoms: _336  and  _339
REMARK  140  A    between atoms: _339  and  _340
REMARK  141  A    between atoms: _343  and  _345
REMARK  142  A    between atoms: _345  and  _346
REMARK  143  A    between atoms: _345  and  _348
REMARK  144  A    between atoms: _348  and  _349
REMARK  145  A    between atoms: _352  and  _354
REMARK  146  A    between atoms: _354  and  _355
REMARK  147  A    between atoms: _357  and  _359
REMARK  148  A    between atoms: _359  and  _360
REMARK  149  A    between atoms: _363  and  _365
REMARK  150  A    between atoms: _365  and  _366
REMARK  151  A    between atoms: _365  and  _368
REMARK  152  A    between atoms: _368  and  _369
REMARK  153  A    between atoms: _372  and  _374
REMARK  154  A    between atoms: _374  and  _375
REMARK  155  A    between atoms: _374  and  _377
REMARK  156  A    between atoms: _377  and  _378
REMARK  157  A    between atoms: _381  and  _383
REMARK  158  A    between atoms: _383  and  _384
REMARK  159  A    between atoms: _383  and  _386
REMARK  160  A    between atoms: _386  and  _387
REMARK  161  A    between atoms: _390  and  _392
REMARK  162  A    between atoms: _392  and  _393
REMARK  163  A    between atoms: _392  and  _395
REMARK  164  A    between atoms: _398  and  _400
REMARK  165  A    between atoms: _400  and  _401
REMARK  166  A    between atoms: _400  and  _403
REMARK  167  A    between atoms: _403  and  _404
REMARK  168  A    between atoms: _404  and  _405
REMARK  169  A    between atoms: _408  and  _410
REMARK  170  A    between atoms: _410  and  _411
REMARK  171  A    between atoms: _410  and  _413
REMARK  172  A    between atoms: _413  and  _414
REMARK  173  A    between atoms: _414  and  _415
REMARK  174  A    between atoms: _415  and  _416
REMARK  175  A    between atoms: _416  and  _417
REMARK  176  A    between atoms: _421  and  _423
REMARK  177  A    between atoms: _423  and  _424
REMARK  178  A    between atoms: _423  and  _426
REMARK  179  A    between atoms: _426  and  _427
REMARK  180  A    between atoms: _427  and  _428
REMARK  181  A    between atoms: _430  and  _432
REMARK  182  A    between atoms: _432  and  _433
REMARK  183  A    between atoms: _432  and  _435
REMARK  184  A    between atoms: _435  and  _436
REMARK  185  A    between atoms: _439  and  _441
REMARK  186  A    between atoms: _441  and  _442
REMARK  187  A    between atoms: _444  and  _446
REMARK  188  A    between atoms: _446  and  _447
REMARK  189  A    between atoms: _449  and  _451
REMARK  190  A    between atoms: _451  and  _452
REMARK  191  A    between atoms: _451  and  _454
REMARK  192  A    between atoms: _454  and  _455
REMARK  193  A    between atoms: _458  and  _460
REMARK  194  A    between atoms: _460  and  _461
REMARK  195  A    between atoms: _463  and  _465
REMARK  196  A    between atoms: _465  and  _466
REMARK  197  A    between atoms: _468  and  _470
REMARK  198  A    between atoms: _470  and  _471
REMARK  199  A    between atoms: _470  and  _473
REMARK  200  A    between atoms: _473  and  _474
REMARK  201  A    between atoms: _480  and  _482
REMARK  202  A    between atoms: _482  and  _483
REMARK  203  A    between atoms: _482  and  _485
REMARK  204  A    between atoms: _485  and  _486
REMARK  205  A    between atoms: _489  and  _491
REMARK  206  A    between atoms: _491  and  _492
REMARK  207  A    between atoms: _491  and  _494
REMARK  208  A    between atoms: _497  and  _499
REMARK  209  A    between atoms: _499  and  _500
REMARK  210  A    between atoms: _499  and  _502
REMARK  211  A    between atoms: _502  and  _503
REMARK  212  A    between atoms: _506  and  _508
REMARK  213  A    between atoms: _508  and  _509
REMARK  214  A    between atoms: _508  and  _511
REMARK  215  A    between atoms: _511  and  _512
REMARK  216  A    between atoms: _516  and  _517
REMARK  217  A    between atoms: _522  and  _524
REMARK  218  A    between atoms: _524  and  _525
REMARK  219  A    between atoms: _524  and  _527
REMARK  220  A    between atoms: _527  and  _528
REMARK  221  A    between atoms: _531  and  _533
REMARK  222  A    between atoms: _533  and  _534
REMARK  223  A    between atoms: _533  and  _536
REMARK  224  A    between atoms: _536  and  _537
REMARK  225  A    between atoms: _542  and  _544
REMARK  226  A    between atoms: _544  and  _545
REMARK  227  A    between atoms: _544  and  _547
REMARK  228  A    between atoms: _550  and  _552
REMARK  229  A    between atoms: _552  and  _553
REMARK  230  A    between atoms: _552  and  _555
REMARK  231  A    between atoms: _555  and  _556
REMARK  232  A    between atoms: _559  and  _561
REMARK  233  A    between atoms: _561  and  _562
REMARK  234  A    between atoms: _564  and  _566
REMARK  235  A    between atoms: _566  and  _567
REMARK  236  A    between atoms: _566  and  _569
REMARK  237  A    between atoms: _569  and  _570
REMARK  238  A    between atoms: _570  and  _571
REMARK  239  A    between atoms: _571  and  _572
REMARK                            x       y       z     vdW  Elec       q    Type
REMARK                         _______ _______ _______ _____ _____    ______ ____
ROOT
ATOM      1  O   HOH     1       3.204  28.228   6.800  0.00  0.00    +0.000 OA
ENDROOT
TORSDOF 0
REMARK  Name = ../refined-set-2016/4a6b/4a6b_pocket.pdb
REMARK  239 active torsions:
REMARK  status: ('A' for Active; 'I' for Inactive)
REMARK    1  A    between atoms: _1  and  _3
REMARK    2  A    between atoms: _3  and  _4
REMARK    3  A    between atoms: _3  and  _6
REMARK    4  A    between atoms: _6  and  _7
REMARK    5  A    between atoms: _7  and  _8
REMARK    6  A    between atoms: _8  and  _9
REMARK    7  A    between atoms: _18  and  _20
REMARK    8  A    between atoms: _20  and  _21
REMARK    9  A    between atoms: _20  and  _23
REMARK   10  A    between atoms: _23  and  _24
REMARK   11  A    between atoms: _27  and  _29
REMARK   12  A    between atoms: _29  and  _30
REMARK   13  A    between atoms: _29  and  _32
REMARK   14  A    between atoms: _32  and  _33
REMARK   15  A    between atoms: _36  and  _38
REMARK   16  A    between atoms: _38  and  _39
REMARK   17  A    between atoms: _38  and  _41
REMARK   18  A    between atoms: _41  and  _42
REMARK   19  A    between atoms: _45  and  _47
REMARK   20  A    between atoms: _47  and  _48
REMARK   21  A    between atoms: _47  and  _50
REMARK   22  A    between atoms: _50  and  _51
REMARK   23  A    between atoms: _54  and  _56
REMARK   24  A    between atoms: _56  and  _57
REMARK   25  A    between atoms: _59  and  _61
REMARK   26  A    between atoms: _61  and  _62
REMARK   27  A    between atoms: _65  and  _67
REMARK   28  A    between atoms: _67  and  _68
REMARK   29  A    between atoms: _67  and  _70
REMARK   30  A    between atoms: _70  and  _71
REMARK   31  A    between atoms: _74  and  _76
REMARK   32  A    between atoms: _76  and  _77
REMARK   33  A    between atoms: _76  and  _79
REMARK   34  A    between atoms: _79  and  _80
REMARK   35  A    between atoms: _83  and  _85
REMARK   36  A    between atoms: _85  and  _86
REMARK   37  A    between atoms: _85  and  _88
REMARK   38  A    between atoms: _88  and  _89
REMARK   39  A    between atoms: _92  and  _94
REMARK   40  A    between atoms: _94  and  _95
REMARK   41  A    between atoms: _94  and  _97
REMARK   42  A    between atoms: _100  and  _102
REMARK   43  A    between atoms: _102  and  _103
REMARK   44  A    between atoms: _102  and  _105
REMARK   45  A    between atoms: _105  and  _106
REMARK   46  A    between atoms: _106  and  _107
REMARK   47  A    between atoms: _107  and  _108
REMARK   48  A    between atoms: _108  and  _109
REMARK   49  A    between atoms: _113  and  _115
REMARK   50  A    between atoms: _115  and  _116
REMARK   51  A    between atoms: _115  and  _118
REMARK   52  A    between atoms: _118  and  _119
REMARK   53  A    between atoms: _119  and  _120
REMARK   54  A    between atoms: _122  and  _124
REMARK   55  A    between atoms: _124  and  _125
REMARK   56  A    between atoms: _124  and  _127
REMARK   57  A    between atoms: _127  and  _128
REMARK   58  A    between atoms: _131  and  _133
REMARK   59  A    between atoms: _133  and  _134
REMARK   60  A    between atoms: _136  and  _138
REMARK   61  A    between atoms: _138  and  _139
REMARK   62  A    between atoms: _141  and  _143
REMARK   63  A    between atoms: _143  and  _144
REMARK   64  A    between atoms: _143  and  _146
REMARK   65  A    between atoms: _146  and  _147
REMARK   66  A    between atoms: _150  and  _152
REMARK   67  A    between atoms: _152  and  _153
REMARK   68  A    between atoms: _155  and  _157
REMARK   69  A    between atoms: _157  and  _158
REMARK   70  A    between atoms: _160  and  _162
REMARK   71  A    between atoms: _162  and  _163
REMARK   72  A    between atoms: _162  and  _165
REMARK   73  A    between atoms: _165  and  _166
REMARK   74  A    between atoms: _172  and  _174
REMARK   75  A    between atoms: _174  and  _175
REMARK   76  A    between atoms: _174  and  _177
REMARK   77  A    between atoms: _177  and  _178
REMARK   78  A    between atoms: _181  and  _183
REMARK   79  A    between atoms: _183  and  _184
REMARK   80  A    between atoms: _183  and  _186
REMARK   81  A    between atoms: _189  and  _191
REMARK   82  A    between atoms: _191  and  _192
REMARK   83  A    between atoms: _191  and  _194
REMARK   84  A    between atoms: _194  and  _195
REMARK   85  A    between atoms: _198  and  _200
REMARK   86  A    between atoms: _200  and  _201
REMARK   87  A    between atoms: _200  and  _203
REMARK   88  A    between atoms: _203  and  _204
REMARK   89  A    between atoms: _208  and  _209
REMARK   90  A    between atoms: _214  and  _216
REMARK   91  A    between atoms: _216  and  _217
REMARK   92  A    between atoms: _216  and  _219
REMARK   93  A    between atoms: _219  and  _220
REMARK   94  A    between atoms: _223  and  _225
REMARK   95  A    between atoms: _225  and  _226
REMARK   96  A    between atoms: _225  and  _228
REMARK   97  A    between atoms: _228  and  _229
REMARK   98  A    between atoms: _234  and  _236
REMARK   99  A    between atoms: _236  and  _237
REMARK  100  A    between atoms: _236  and  _239
REMARK  101  A    between atoms: _242  and  _244
REMARK  102  A    between atoms: _244  and  _245
REMARK  103  A    between atoms: _244  and  _247
REMARK  104  A    between atoms: _247  and  _248
REMARK  105  A    between atoms: _251  and  _253
REMARK  106  A    between atoms: _253  and  _254
REMARK  107  A    between atoms: _256  and  _258
REMARK  108  A    between atoms: _258  and  _259
REMARK  109  A    between atoms: _258  and  _261
REMARK  110  A    between atoms: _261  and  _262
REMARK  111  A    between atoms: _262  and  _263
REMARK  112  A    between atoms: _263  and  _264
REMARK  113  A    between atoms: _273  and  _275
REMARK  114  A    between atoms: _275  and  _276
REMARK  115  A    between atoms: _275  and  _278
REMARK  116  A    between atoms: _278  and  _279
REMARK  117  A    between atoms: _284  and  _286
REMARK  118  A    between atoms: _286  and  _287
REMARK  119  A    between atoms: _286  and  _289
REMARK  120  A    between atoms: _289  and  _290
REMARK  121  A    between atoms: _290  and  _291
REMARK  122  A    between atoms: _291  and  _292
REMARK  123  A    between atoms: _301  and  _303
REMARK  124  A    between atoms: _303  and  _304
REMARK  125  A    between atoms: _303  and  _306
REMARK  126  A    between atoms: _306  and  _307
REMARK  127  A    between atoms: _310  and  _312
REMARK  128  A    between atoms: _312  and  _313
REMARK  129  A    between atoms: _316  and  _318
REMARK  130  A    between atoms: _318  and  _319
REMARK  131  A    between atoms: _318  and  _321
REMARK  132  A    between atoms: _321  and  _322
REMARK  133  A    between atoms: _325  and  _327
REMARK  134  A    between atoms: _327  and  _328
REMARK  135  A    between atoms: _327  and  _330
REMARK  136  A    between atoms: _330  and  _331
REMARK  137  A    between atoms: _334  and  _336
REMARK  138  A    between atoms: _336  and  _337
REMARK  139  A    between atoms: _336  and  _339
REMARK  140  A    between atoms: _339  and  _340
REMARK  141  A    between atoms: _343  and  _345
REMARK  142  A    between atoms: _345  and  _346
REMARK  143  A    between atoms: _345  and  _348
REMARK  144  A    between atoms: _348  and  _349
REMARK  145  A    between atoms: _352  and  _354
REMARK  146  A    between atoms: _354  and  _355
REMARK  147  A    between atoms: _357  and  _359
REMARK  148  A    between atoms: _359  and  _360
REMARK  149  A    between atoms: _363  and  _365
REMARK  150  A    between atoms: _365  and  _366
REMARK  151  A    between atoms: _365  and  _368
REMARK  152  A    between atoms: _368  and  _369
REMARK  153  A    between atoms: _372  and  _374
REMARK  154  A    between atoms: _374  and  _375
REMARK  155  A    between atoms: _374  and  _377
REMARK  156  A    between atoms: _377  and  _378
REMARK  157  A    between atoms: _381  and  _383
REMARK  158  A    between atoms: _383  and  _384
REMARK  159  A    between atoms: _383  and  _386
REMARK  160  A    between atoms: _386  and  _387
REMARK  161  A    between atoms: _390  and  _392
REMARK  162  A    between atoms: _392  and  _393
REMARK  163  A    between atoms: _392  and  _395
REMARK  164  A    between atoms: _398  and  _400
REMARK  165  A    between atoms: _400  and  _401
REMARK  166  A    between atoms: _400  and  _403
REMARK  167  A    between atoms: _403  and  _404
REMARK  168  A    between atoms: _404  and  _405
REMARK  169  A    between atoms: _408  and  _410
REMARK  170  A    between atoms: _410  and  _411
REMARK  171  A    between atoms: _410  and  _413
REMARK  172  A    between atoms: _413  and  _414
REMARK  173  A    between atoms: _414  and  _415
REMARK  174  A    between atoms: _415  and  _416
REMARK  175  A    between atoms: _416  and  _417
REMARK  176  A    between atoms: _421  and  _423
REMARK  177  A    between atoms: _423  and  _424
REMARK  178  A    between atoms: _423  and  _426
REMARK  179  A    between atoms: _426  and  _427
REMARK  180  A    between atoms: _427  and  _428
REMARK  181  A    between atoms: _430  and  _432
REMARK  182  A    between atoms: _432  and  _433
REMARK  183  A    between atoms: _432  and  _435
REMARK  184  A    between atoms: _435  and  _436
REMARK  185  A    between atoms: _439  and  _441
REMARK  186  A    between atoms: _441  and  _442
REMARK  187  A    between atoms: _444  and  _446
REMARK  188  A    between atoms: _446  and  _447
REMARK  189  A    between atoms: _449  and  _451
REMARK  190  A    between atoms: _451  and  _452
REMARK  191  A    between atoms: _451  and  _454
REMARK  192  A    between atoms: _454  and  _455
REMARK  193  A    between atoms: _458  and  _460
REMARK  194  A    between atoms: _460  and  _461
REMARK  195  A    between atoms: _463  and  _465
REMARK  196  A    between atoms: _465  and  _466
REMARK  197  A    between atoms: _468  and  _470
REMARK  198  A    between atoms: _470  and  _471
REMARK  199  A    between atoms: _470  and  _473
REMARK  200  A    between atoms: _473  and  _474
REMARK  201  A    between atoms: _480  and  _482
REMARK  202  A    between atoms: _482  and  _483
REMARK  203  A    between atoms: _482  and  _485
REMARK  204  A    between atoms: _485  and  _486
REMARK  205  A    between atoms: _489  and  _491
REMARK  206  A    between atoms: _491  and  _492
REMARK  207  A    between atoms: _491  and  _494
REMARK  208  A    between atoms: _497  and  _499
REMARK  209  A    between atoms: _499  and  _500
REMARK  210  A    between atoms: _499  and  _502
REMARK  211  A    between atoms: _502  and  _503
REMARK  212  A    between atoms: _506  and  _508
REMARK  213  A    between atoms: _508  and  _509
REMARK  214  A    between atoms: _508  and  _511
REMARK  215  A    between atoms: _511  and  _512
REMARK  216  A    between atoms: _516  and  _517
REMARK  217  A    between atoms: _522  and  _524
REMARK  218  A    between atoms: _524  and  _525
REMARK  219  A    between atoms: _524  and  _527
REMARK  220  A    between atoms: _527  and  _528
REMARK  221  A    between atoms: _531  and  _533
REMARK  222  A    between atoms: _533  and  _534
REMARK  223  A    between atoms: _533  and  _536
REMARK  224  A    between atoms: _536  and  _537
REMARK  225  A    between atoms: _542  and  _544
REMARK  226  A    between atoms: _544  and  _545
REMARK  227  A    between atoms: _544  and  _547
REMARK  228  A    between atoms: _550  and  _552
REMARK  229  A    between atoms: _552  and  _553
REMARK  230  A    between atoms: _552  and  _555
REMARK  231  A    between atoms: _555  and  _556
REMARK  232  A    between atoms: _559  and  _561
REMARK  233  A    between atoms: _561  and  _562
REMARK  234  A    between atoms: _564  and  _566
REMARK  235  A    between atoms: _566  and  _567
REMARK  236  A    between atoms: _566  and  _569
REMARK  237  A    between atoms: _569  and  _570
REMARK  238  A    between atoms: _570  and  _571
REMARK  239  A    between atoms: _571  and  _572
REMARK                            x       y       z     vdW  Elec       q    Type
REMARK                         _______ _______ _______ _____ _____    ______ ____
ROOT
ATOM      1  O   HOH     1      10.892  31.223   1.758  0.00  0.00    +0.000 OA
ENDROOT
TORSDOF 0
REMARK  Name = ../refined-set-2016/4a6b/4a6b_pocket.pdb
REMARK  239 active torsions:
REMARK  status: ('A' for Active; 'I' for Inactive)
REMARK    1  A    between atoms: _1  and  _3
REMARK    2  A    between atoms: _3  and  _4
REMARK    3  A    between atoms: _3  and  _6
REMARK    4  A    between atoms: _6  and  _7
REMARK    5  A    between atoms: _7  and  _8
REMARK    6  A    between atoms: _8  and  _9
REMARK    7  A    between atoms: _18  and  _20
REMARK    8  A    between atoms: _20  and  _21
REMARK    9  A    between atoms: _20  and  _23
REMARK   10  A    between atoms: _23  and  _24
REMARK   11  A    between atoms: _27  and  _29
REMARK   12  A    between atoms: _29  and  _30
REMARK   13  A    between atoms: _29  and  _32
REMARK   14  A    between atoms: _32  and  _33
REMARK   15  A    between atoms: _36  and  _38
REMARK   16  A    between atoms: _38  and  _39
REMARK   17  A    between atoms: _38  and  _41
REMARK   18  A    between atoms: _41  and  _42
REMARK   19  A    between atoms: _45  and  _47
REMARK   20  A    between atoms: _47  and  _48
REMARK   21  A    between atoms: _47  and  _50
REMARK   22  A    between atoms: _50  and  _51
REMARK   23  A    between atoms: _54  and  _56
REMARK   24  A    between atoms: _56  and  _57
REMARK   25  A    between atoms: _59  and  _61
REMARK   26  A    between atoms: _61  and  _62
REMARK   27  A    between atoms: _65  and  _67
REMARK   28  A    between atoms: _67  and  _68
REMARK   29  A    between atoms: _67  and  _70
REMARK   30  A    between atoms: _70  and  _71
REMARK   31  A    between atoms: _74  and  _76
REMARK   32  A    between atoms: _76  and  _77
REMARK   33  A    between atoms: _76  and  _79
REMARK   34  A    between atoms: _79  and  _80
REMARK   35  A    between atoms: _83  and  _85
REMARK   36  A    between atoms: _85  and  _86
REMARK   37  A    between atoms: _85  and  _88
REMARK   38  A    between atoms: _88  and  _89
REMARK   39  A    between atoms: _92  and  _94
REMARK   40  A    between atoms: _94  and  _95
REMARK   41  A    between atoms: _94  and  _97
REMARK   42  A    between atoms: _100  and  _102
REMARK   43  A    between atoms: _102  and  _103
REMARK   44  A    between atoms: _102  and  _105
REMARK   45  A    between atoms: _105  and  _106
REMARK   46  A    between atoms: _106  and  _107
REMARK   47  A    between atoms: _107  and  _108
REMARK   48  A    between atoms: _108  and  _109
REMARK   49  A    between atoms: _113  and  _115
REMARK   50  A    between atoms: _115  and  _116
REMARK   51  A    between atoms: _115  and  _118
REMARK   52  A    between atoms: _118  and  _119
REMARK   53  A    between atoms: _119  and  _120
REMARK   54  A    between atoms: _122  and  _124
REMARK   55  A    between atoms: _124  and  _125
REMARK   56  A    between atoms: _124  and  _127
REMARK   57  A    between atoms: _127  and  _128
REMARK   58  A    between atoms: _131  and  _133
REMARK   59  A    between atoms: _133  and  _134
REMARK   60  A    between atoms: _136  and  _138
REMARK   61  A    between atoms: _138  and  _139
REMARK   62  A    between atoms: _141  and  _143
REMARK   63  A    between atoms: _143  and  _144
REMARK   64  A    between atoms: _143  and  _146
REMARK   65  A    between atoms: _146  and  _147
REMARK   66  A    between atoms: _150  and  _152
REMARK   67  A    between atoms: _152  and  _153
REMARK   68  A    between atoms: _155  and  _157
REMARK   69  A    between atoms: _157  and  _158
REMARK   70  A    between atoms: _160  and  _162
REMARK   71  A    between atoms: _162  and  _163
REMARK   72  A    between atoms: _162  and  _165
REMARK   73  A    between atoms: _165  and  _166
REMARK   74  A    between atoms: _172  and  _174
REMARK   75  A    between atoms: _174  and  _175
REMARK   76  A    between atoms: _174  and  _177
REMARK   77  A    between atoms: _177  and  _178
REMARK   78  A    between atoms: _181  and  _183
REMARK   79  A    between atoms: _183  and  _184
REMARK   80  A    between atoms: _183  and  _186
REMARK   81  A    between atoms: _189  and  _191
REMARK   82  A    between atoms: _191  and  _192
REMARK   83  A    between atoms: _191  and  _194
REMARK   84  A    between atoms: _194  and  _195
REMARK   85  A    between atoms: _198  and  _200
REMARK   86  A    between atoms: _200  and  _201
REMARK   87  A    between atoms: _200  and  _203
REMARK   88  A    between atoms: _203  and  _204
REMARK   89  A    between atoms: _208  and  _209
REMARK   90  A    between atoms: _214  and  _216
REMARK   91  A    between atoms: _216  and  _217
REMARK   92  A    between atoms: _216  and  _219
REMARK   93  A    between atoms: _219  and  _220
REMARK   94  A    between atoms: _223  and  _225
REMARK   95  A    between atoms: _225  and  _226
REMARK   96  A    between atoms: _225  and  _228
REMARK   97  A    between atoms: _228  and  _229
REMARK   98  A    between atoms: _234  and  _236
REMARK   99  A    between atoms: _236  and  _237
REMARK  100  A    between atoms: _236  and  _239
REMARK  101  A    between atoms: _242  and  _244
REMARK  102  A    between atoms: _244  and  _245
REMARK  103  A    between atoms: _244  and  _247
REMARK  104  A    between atoms: _247  and  _248
REMARK  105  A    between atoms: _251  and  _253
REMARK  106  A    between atoms: _253  and  _254
REMARK  107  A    between atoms: _256  and  _258
REMARK  108  A    between atoms: _258  and  _259
REMARK  109  A    between atoms: _258  and  _261
REMARK  110  A    between atoms: _261  and  _262
REMARK  111  A    between atoms: _262  and  _263
REMARK  112  A    between atoms: _263  and  _264
REMARK  113  A    between atoms: _273  and  _275
REMARK  114  A    between atoms: _275  and  _276
REMARK  115  A    between atoms: _275  and  _278
REMARK  116  A    between atoms: _278  and  _279
REMARK  117  A    between atoms: _284  and  _286
REMARK  118  A    between atoms: _286  and  _287
REMARK  119  A    between atoms: _286  and  _289
REMARK  120  A    between atoms: _289  and  _290
REMARK  121  A    between atoms: _290  and  _291
REMARK  122  A    between atoms: _291  and  _292
REMARK  123  A    between atoms: _301  and  _303
REMARK  124  A    between atoms: _303  and  _304
REMARK  125  A    between atoms: _303  and  _306
REMARK  126  A    between atoms: _306  and  _307
REMARK  127  A    between atoms: _310  and  _312
REMARK  128  A    between atoms: _312  and  _313
REMARK  129  A    between atoms: _316  and  _318
REMARK  130  A    between atoms: _318  and  _319
REMARK  131  A    between atoms: _318  and  _321
REMARK  132  A    between atoms: _321  and  _322
REMARK  133  A    between atoms: _325  and  _327
REMARK  134  A    between atoms: _327  and  _328
REMARK  135  A    between atoms: _327  and  _330
REMARK  136  A    between atoms: _330  and  _331
REMARK  137  A    between atoms: _334  and  _336
REMARK  138  A    between atoms: _336  and  _337
REMARK  139  A    between atoms: _336  and  _339
REMARK  140  A    between atoms: _339  and  _340
REMARK  141  A    between atoms: _343  and  _345
REMARK  142  A    between atoms: _345  and  _346
REMARK  143  A    between atoms: _345  and  _348
REMARK  144  A    between atoms: _348  and  _349
REMARK  145  A    between atoms: _352  and  _354
REMARK  146  A    between atoms: _354  and  _355
REMARK  147  A    between atoms: _357  and  _359
REMARK  148  A    between atoms: _359  and  _360
REMARK  149  A    between atoms: _363  and  _365
REMARK  150  A    between atoms: _365  and  _366
REMARK  151  A    between atoms: _365  and  _368
REMARK  152  A    between atoms: _368  and  _369
REMARK  153  A    between atoms: _372  and  _374
REMARK  154  A    between atoms: _374  and  _375
REMARK  155  A    between atoms: _374  and  _377
REMARK  156  A    between atoms: _377  and  _378
REMARK  157  A    between atoms: _381  and  _383
REMARK  158  A    between atoms: _383  and  _384
REMARK  159  A    between atoms: _383  and  _386
REMARK  160  A    between atoms: _386  and  _387
REMARK  161  A    between atoms: _390  and  _392
REMARK  162  A    between atoms: _392  and  _393
REMARK  163  A    between atoms: _392  and  _395
REMARK  164  A    between atoms: _398  and  _400
REMARK  165  A    between atoms: _400  and  _401
REMARK  166  A    between atoms: _400  and  _403
REMARK  167  A    between atoms: _403  and  _404
REMARK  168  A    between atoms: _404  and  _405
REMARK  169  A    between atoms: _408  and  _410
REMARK  170  A    between atoms: _410  and  _411
REMARK  171  A    between atoms: _410  and  _413
REMARK  172  A    between atoms: _413  and  _414
REMARK  173  A    between atoms: _414  and  _415
REMARK  174  A    between atoms: _415  and  _416
REMARK  175  A    between atoms: _416  and  _417
REMARK  176  A    between atoms: _421  and  _423
REMARK  177  A    between atoms: _423  and  _424
REMARK  178  A    between atoms: _423  and  _426
REMARK  179  A    between atoms: _426  and  _427
REMARK  180  A    between atoms: _427  and  _428
REMARK  181  A    between atoms: _430  and  _432
REMARK  182  A    between atoms: _432  and  _433
REMARK  183  A    between atoms: _432  and  _435
REMARK  184  A    between atoms: _435  and  _436
REMARK  185  A    between atoms: _439  and  _441
REMARK  186  A    between atoms: _441  and  _442
REMARK  187  A    between atoms: _444  and  _446
REMARK  188  A    between atoms: _446  and  _447
REMARK  189  A    between atoms: _449  and  _451
REMARK  190  A    between atoms: _451  and  _452
REMARK  191  A    between atoms: _451  and  _454
REMARK  192  A    between atoms: _454  and  _455
REMARK  193  A    between atoms: _458  and  _460
REMARK  194  A    between atoms: _460  and  _461
REMARK  195  A    between atoms: _463  and  _465
REMARK  196  A    between atoms: _465  and  _466
REMARK  197  A    between atoms: _468  and  _470
REMARK  198  A    between atoms: _470  and  _471
REMARK  199  A    between atoms: _470  and  _473
REMARK  200  A    between atoms: _473  and  _474
REMARK  201  A    between atoms: _480  and  _482
REMARK  202  A    between atoms: _482  and  _483
REMARK  203  A    between atoms: _482  and  _485
REMARK  204  A    between atoms: _485  and  _486
REMARK  205  A    between atoms: _489  and  _491
REMARK  206  A    between atoms: _491  and  _492
REMARK  207  A    between atoms: _491  and  _494
REMARK  208  A    between atoms: _497  and  _499
REMARK  209  A    between atoms: _499  and  _500
REMARK  210  A    between atoms: _499  and  _502
REMARK  211  A    between atoms: _502  and  _503
REMARK  212  A    between atoms: _506  and  _508
REMARK  213  A    between atoms: _508  and  _509
REMARK  214  A    between atoms: _508  and  _511
REMARK  215  A    between atoms: _511  and  _512
REMARK  216  A    between atoms: _516  and  _517
REMARK  217  A    between atoms: _522  and  _524
REMARK  218  A    between atoms: _524  and  _525
REMARK  219  A    between atoms: _524  and  _527
REMARK  220  A    between atoms: _527  and  _528
REMARK  221  A    between atoms: _531  and  _533
REMARK  222  A    between atoms: _533  and  _534
REMARK  223  A    between atoms: _533  and  _536
REMARK  224  A    between atoms: _536  and  _537
REMARK  225  A    between atoms: _542  and  _544
REMARK  226  A    between atoms: _544  and  _545
REMARK  227  A    between atoms: _544  and  _547
REMARK  228  A    between atoms: _550  and  _552
REMARK  229  A    between atoms: _552  and  _553
REMARK  230  A    between atoms: _552  and  _555
REMARK  231  A    between atoms: _555  and  _556
REMARK  232  A    between atoms: _559  and  _561
REMARK  233  A    between atoms: _561  and  _562
REMARK  234  A    between atoms: _564  and  _566
REMARK  235  A    between atoms: _566  and  _567
REMARK  236  A    between atoms: _566  and  _569
REMARK  237  A    between atoms: _569  and  _570
REMARK  238  A    between atoms: _570  and  _571
REMARK  239  A    between atoms: _571  and  _572
REMARK                            x       y       z     vdW  Elec       q    Type
REMARK                         _______ _______ _______ _____ _____    ______ ____
ROOT
ATOM      1  O   HOH     1       8.470  29.003   4.822  0.00  0.00    +0.000 OA
ENDROOT
TORSDOF 0
REMARK  Name = ../refined-set-2016/4a6b/4a6b_pocket.pdb
REMARK  239 active torsions:
REMARK  status: ('A' for Active; 'I' for Inactive)
REMARK    1  A    between atoms: _1  and  _3
REMARK    2  A    between atoms: _3  and  _4
REMARK    3  A    between atoms: _3  and  _6
REMARK    4  A    between atoms: _6  and  _7
REMARK    5  A    between atoms: _7  and  _8
REMARK    6  A    between atoms: _8  and  _9
REMARK    7  A    between atoms: _18  and  _20
REMARK    8  A    between atoms: _20  and  _21
REMARK    9  A    between atoms: _20  and  _23
REMARK   10  A    between atoms: _23  and  _24
REMARK   11  A    between atoms: _27  and  _29
REMARK   12  A    between atoms: _29  and  _30
REMARK   13  A    between atoms: _29  and  _32
REMARK   14  A    between atoms: _32  and  _33
REMARK   15  A    between atoms: _36  and  _38
REMARK   16  A    between atoms: _38  and  _39
REMARK   17  A    between atoms: _38  and  _41
REMARK   18  A    between atoms: _41  and  _42
REMARK   19  A    between atoms: _45  and  _47
REMARK   20  A    between atoms: _47  and  _48
REMARK   21  A    between atoms: _47  and  _50
REMARK   22  A    between atoms: _50  and  _51
REMARK   23  A    between atoms: _54  and  _56
REMARK   24  A    between atoms: _56  and  _57
REMARK   25  A    between atoms: _59  and  _61
REMARK   26  A    between atoms: _61  and  _62
REMARK   27  A    between atoms: _65  and  _67
REMARK   28  A    between atoms: _67  and  _68
REMARK   29  A    between atoms: _67  and  _70
REMARK   30  A    between atoms: _70  and  _71
REMARK   31  A    between atoms: _74  and  _76
REMARK   32  A    between atoms: _76  and  _77
REMARK   33  A    between atoms: _76  and  _79
REMARK   34  A    between atoms: _79  and  _80
REMARK   35  A    between atoms: _83  and  _85
REMARK   36  A    between atoms: _85  and  _86
REMARK   37  A    between atoms: _85  and  _88
REMARK   38  A    between atoms: _88  and  _89
REMARK   39  A    between atoms: _92  and  _94
REMARK   40  A    between atoms: _94  and  _95
REMARK   41  A    between atoms: _94  and  _97
REMARK   42  A    between atoms: _100  and  _102
REMARK   43  A    between atoms: _102  and  _103
REMARK   44  A    between atoms: _102  and  _105
REMARK   45  A    between atoms: _105  and  _106
REMARK   46  A    between atoms: _106  and  _107
REMARK   47  A    between atoms: _107  and  _108
REMARK   48  A    between atoms: _108  and  _109
REMARK   49  A    between atoms: _113  and  _115
REMARK   50  A    between atoms: _115  and  _116
REMARK   51  A    between atoms: _115  and  _118
REMARK   52  A    between atoms: _118  and  _119
REMARK   53  A    between atoms: _119  and  _120
REMARK   54  A    between atoms: _122  and  _124
REMARK   55  A    between atoms: _124  and  _125
REMARK   56  A    between atoms: _124  and  _127
REMARK   57  A    between atoms: _127  and  _128
REMARK   58  A    between atoms: _131  and  _133
REMARK   59  A    between atoms: _133  and  _134
REMARK   60  A    between atoms: _136  and  _138
REMARK   61  A    between atoms: _138  and  _139
REMARK   62  A    between atoms: _141  and  _143
REMARK   63  A    between atoms: _143  and  _144
REMARK   64  A    between atoms: _143  and  _146
REMARK   65  A    between atoms: _146  and  _147
REMARK   66  A    between atoms: _150  and  _152
REMARK   67  A    between atoms: _152  and  _153
REMARK   68  A    between atoms: _155  and  _157
REMARK   69  A    between atoms: _157  and  _158
REMARK   70  A    between atoms: _160  and  _162
REMARK   71  A    between atoms: _162  and  _163
REMARK   72  A    between atoms: _162  and  _165
REMARK   73  A    between atoms: _165  and  _166
REMARK   74  A    between atoms: _172  and  _174
REMARK   75  A    between atoms: _174  and  _175
REMARK   76  A    between atoms: _174  and  _177
REMARK   77  A    between atoms: _177  and  _178
REMARK   78  A    between atoms: _181  and  _183
REMARK   79  A    between atoms: _183  and  _184
REMARK   80  A    between atoms: _183  and  _186
REMARK   81  A    between atoms: _189  and  _191
REMARK   82  A    between atoms: _191  and  _192
REMARK   83  A    between atoms: _191  and  _194
REMARK   84  A    between atoms: _194  and  _195
REMARK   85  A    between atoms: _198  and  _200
REMARK   86  A    between atoms: _200  and  _201
REMARK   87  A    between atoms: _200  and  _203
REMARK   88  A    between atoms: _203  and  _204
REMARK   89  A    between atoms: _208  and  _209
REMARK   90  A    between atoms: _214  and  _216
REMARK   91  A    between atoms: _216  and  _217
REMARK   92  A    between atoms: _216  and  _219
REMARK   93  A    between atoms: _219  and  _220
REMARK   94  A    between atoms: _223  and  _225
REMARK   95  A    between atoms: _225  and  _226
REMARK   96  A    between atoms: _225  and  _228
REMARK   97  A    between atoms: _228  and  _229
REMARK   98  A    between atoms: _234  and  _236
REMARK   99  A    between atoms: _236  and  _237
REMARK  100  A    between atoms: _236  and  _239
REMARK  101  A    between atoms: _242  and  _244
REMARK  102  A    between atoms: _244  and  _245
REMARK  103  A    between atoms: _244  and  _247
REMARK  104  A    between atoms: _247  and  _248
REMARK  105  A    between atoms: _251  and  _253
REMARK  106  A    between atoms: _253  and  _254
REMARK  107  A    between atoms: _256  and  _258
REMARK  108  A    between atoms: _258  and  _259
REMARK  109  A    between atoms: _258  and  _261
REMARK  110  A    between atoms: _261  and  _262
REMARK  111  A    between atoms: _262  and  _263
REMARK  112  A    between atoms: _263  and  _264
REMARK  113  A    between atoms: _273  and  _275
REMARK  114  A    between atoms: _275  and  _276
REMARK  115  A    between atoms: _275  and  _278
REMARK  116  A    between atoms: _278  and  _279
REMARK  117  A    between atoms: _284  and  _286
REMARK  118  A    between atoms: _286  and  _287
REMARK  119  A    between atoms: _286  and  _289
REMARK  120  A    between atoms: _289  and  _290
REMARK  121  A    between atoms: _290  and  _291
REMARK  122  A    between atoms: _291  and  _292
REMARK  123  A    between atoms: _301  and  _303
REMARK  124  A    between atoms: _303  and  _304
REMARK  125  A    between atoms: _303  and  _306
REMARK  126  A    between atoms: _306  and  _307
REMARK  127  A    between atoms: _310  and  _312
REMARK  128  A    between atoms: _312  and  _313
REMARK  129  A    between atoms: _316  and  _318
REMARK  130  A    between atoms: _318  and  _319
REMARK  131  A    between atoms: _318  and  _321
REMARK  132  A    between atoms: _321  and  _322
REMARK  133  A    between atoms: _325  and  _327
REMARK  134  A    between atoms: _327  and  _328
REMARK  135  A    between atoms: _327  and  _330
REMARK  136  A    between atoms: _330  and  _331
REMARK  137  A    between atoms: _334  and  _336
REMARK  138  A    between atoms: _336  and  _337
REMARK  139  A    between atoms: _336  and  _339
REMARK  140  A    between atoms: _339  and  _340
REMARK  141  A    between atoms: _343  and  _345
REMARK  142  A    between atoms: _345  and  _346
REMARK  143  A    between atoms: _345  and  _348
REMARK  144  A    between atoms: _348  and  _349
REMARK  145  A    between atoms: _352  and  _354
REMARK  146  A    between atoms: _354  and  _355
REMARK  147  A    between atoms: _357  and  _359
REMARK  148  A    between atoms: _359  and  _360
REMARK  149  A    between atoms: _363  and  _365
REMARK  150  A    between atoms: _365  and  _366
REMARK  151  A    between atoms: _365  and  _368
REMARK  152  A    between atoms: _368  and  _369
REMARK  153  A    between atoms: _372  and  _374
REMARK  154  A    between atoms: _374  and  _375
REMARK  155  A    between atoms: _374  and  _377
REMARK  156  A    between atoms: _377  and  _378
REMARK  157  A    between atoms: _381  and  _383
REMARK  158  A    between atoms: _383  and  _384
REMARK  159  A    between atoms: _383  and  _386
REMARK  160  A    between atoms: _386  and  _387
REMARK  161  A    between atoms: _390  and  _392
REMARK  162  A    between atoms: _392  and  _393
REMARK  163  A    between atoms: _392  and  _395
REMARK  164  A    between atoms: _398  and  _400
REMARK  165  A    between atoms: _400  and  _401
REMARK  166  A    between atoms: _400  and  _403
REMARK  167  A    between atoms: _403  and  _404
REMARK  168  A    between atoms: _404  and  _405
REMARK  169  A    between atoms: _408  and  _410
REMARK  170  A    between atoms: _410  and  _411
REMARK  171  A    between atoms: _410  and  _413
REMARK  172  A    between atoms: _413  and  _414
REMARK  173  A    between atoms: _414  and  _415
REMARK  174  A    between atoms: _415  and  _416
REMARK  175  A    between atoms: _416  and  _417
REMARK  176  A    between atoms: _421  and  _423
REMARK  177  A    between atoms: _423  and  _424
REMARK  178  A    between atoms: _423  and  _426
REMARK  179  A    between atoms: _426  and  _427
REMARK  180  A    between atoms: _427  and  _428
REMARK  181  A    between atoms: _430  and  _432
REMARK  182  A    between atoms: _432  and  _433
REMARK  183  A    between atoms: _432  and  _435
REMARK  184  A    between atoms: _435  and  _436
REMARK  185  A    between atoms: _439  and  _441
REMARK  186  A    between atoms: _441  and  _442
REMARK  187  A    between atoms: _444  and  _446
REMARK  188  A    between atoms: _446  and  _447
REMARK  189  A    between atoms: _449  and  _451
REMARK  190  A    between atoms: _451  and  _452
REMARK  191  A    between atoms: _451  and  _454
REMARK  192  A    between atoms: _454  and  _455
REMARK  193  A    between atoms: _458  and  _460
REMARK  194  A    between atoms: _460  and  _461
REMARK  195  A    between atoms: _463  and  _465
REMARK  196  A    between atoms: _465  and  _466
REMARK  197  A    between atoms: _468  and  _470
REMARK  198  A    between atoms: _470  and  _471
REMARK  199  A    between atoms: _470  and  _473
REMARK  200  A    between atoms: _473  and  _474
REMARK  201  A    between atoms: _480  and  _482
REMARK  202  A    between atoms: _482  and  _483
REMARK  203  A    between atoms: _482  and  _485
REMARK  204  A    between atoms: _485  and  _486
REMARK  205  A    between atoms: _489  and  _491
REMARK  206  A    between atoms: _491  and  _492
REMARK  207  A    between atoms: _491  and  _494
REMARK  208  A    between atoms: _497  and  _499
REMARK  209  A    between atoms: _499  and  _500
REMARK  210  A    between atoms: _499  and  _502
REMARK  211  A    between atoms: _502  and  _503
REMARK  212  A    between atoms: _506  and  _508
REMARK  213  A    between atoms: _508  and  _509
REMARK  214  A    between atoms: _508  and  _511
REMARK  215  A    between atoms: _511  and  _512
REMARK  216  A    between atoms: _516  and  _517
REMARK  217  A    between atoms: _522  and  _524
REMARK  218  A    between atoms: _524  and  _525
REMARK  219  A    between atoms: _524  and  _527
REMARK  220  A    between atoms: _527  and  _528
REMARK  221  A    between atoms: _531  and  _533
REMARK  222  A    between atoms: _533  and  _534
REMARK  223  A    between atoms: _533  and  _536
REMARK  224  A    between atoms: _536  and  _537
REMARK  225  A    between atoms: _542  and  _544
REMARK  226  A    between atoms: _544  and  _545
REMARK  227  A    between atoms: _544  and  _547
REMARK  228  A    between atoms: _550  and  _552
REMARK  229  A    between atoms: _552  and  _553
REMARK  230  A    between atoms: _552  and  _555
REMARK  231  A    between atoms: _555  and  _556
REMARK  232  A    between atoms: _559  and  _561
REMARK  233  A    between atoms: _561  and  _562
REMARK  234  A    between atoms: _564  and  _566
REMARK  235  A    between atoms: _566  and  _567
REMARK  236  A    between atoms: _566  and  _569
REMARK  237  A    between atoms: _569  and  _570
REMARK  238  A    between atoms: _570  and  _571
REMARK  239  A    between atoms: _571  and  _572
REMARK                            x       y       z     vdW  Elec       q    Type
REMARK                         _______ _______ _______ _____ _____    ______ ____
ROOT
ATOM      1  O   HOH     1       8.983  29.238   1.931  0.00  0.00    +0.000 OA
ENDROOT
TORSDOF 0
REMARK  Name = ../refined-set-2016/4a6b/4a6b_pocket.pdb
REMARK  239 active torsions:
REMARK  status: ('A' for Active; 'I' for Inactive)
REMARK    1  A    between atoms: _1  and  _3
REMARK    2  A    between atoms: _3  and  _4
REMARK    3  A    between atoms: _3  and  _6
REMARK    4  A    between atoms: _6  and  _7
REMARK    5  A    between atoms: _7  and  _8
REMARK    6  A    between atoms: _8  and  _9
REMARK    7  A    between atoms: _18  and  _20
REMARK    8  A    between atoms: _20  and  _21
REMARK    9  A    between atoms: _20  and  _23
REMARK   10  A    between atoms: _23  and  _24
REMARK   11  A    between atoms: _27  and  _29
REMARK   12  A    between atoms: _29  and  _30
REMARK   13  A    between atoms: _29  and  _32
REMARK   14  A    between atoms: _32  and  _33
REMARK   15  A    between atoms: _36  and  _38
REMARK   16  A    between atoms: _38  and  _39
REMARK   17  A    between atoms: _38  and  _41
REMARK   18  A    between atoms: _41  and  _42
REMARK   19  A    between atoms: _45  and  _47
REMARK   20  A    between atoms: _47  and  _48
REMARK   21  A    between atoms: _47  and  _50
REMARK   22  A    between atoms: _50  and  _51
REMARK   23  A    between atoms: _54  and  _56
REMARK   24  A    between atoms: _56  and  _57
REMARK   25  A    between atoms: _59  and  _61
REMARK   26  A    between atoms: _61  and  _62
REMARK   27  A    between atoms: _65  and  _67
REMARK   28  A    between atoms: _67  and  _68
REMARK   29  A    between atoms: _67  and  _70
REMARK   30  A    between atoms: _70  and  _71
REMARK   31  A    between atoms: _74  and  _76
REMARK   32  A    between atoms: _76  and  _77
REMARK   33  A    between atoms: _76  and  _79
REMARK   34  A    between atoms: _79  and  _80
REMARK   35  A    between atoms: _83  and  _85
REMARK   36  A    between atoms: _85  and  _86
REMARK   37  A    between atoms: _85  and  _88
REMARK   38  A    between atoms: _88  and  _89
REMARK   39  A    between atoms: _92  and  _94
REMARK   40  A    between atoms: _94  and  _95
REMARK   41  A    between atoms: _94  and  _97
REMARK   42  A    between atoms: _100  and  _102
REMARK   43  A    between atoms: _102  and  _103
REMARK   44  A    between atoms: _102  and  _105
REMARK   45  A    between atoms: _105  and  _106
REMARK   46  A    between atoms: _106  and  _107
REMARK   47  A    between atoms: _107  and  _108
REMARK   48  A    between atoms: _108  and  _109
REMARK   49  A    between atoms: _113  and  _115
REMARK   50  A    between atoms: _115  and  _116
REMARK   51  A    between atoms: _115  and  _118
REMARK   52  A    between atoms: _118  and  _119
REMARK   53  A    between atoms: _119  and  _120
REMARK   54  A    between atoms: _122  and  _124
REMARK   55  A    between atoms: _124  and  _125
REMARK   56  A    between atoms: _124  and  _127
REMARK   57  A    between atoms: _127  and  _128
REMARK   58  A    between atoms: _131  and  _133
REMARK   59  A    between atoms: _133  and  _134
REMARK   60  A    between atoms: _136  and  _138
REMARK   61  A    between atoms: _138  and  _139
REMARK   62  A    between atoms: _141  and  _143
REMARK   63  A    between atoms: _143  and  _144
REMARK   64  A    between atoms: _143  and  _146
REMARK   65  A    between atoms: _146  and  _147
REMARK   66  A    between atoms: _150  and  _152
REMARK   67  A    between atoms: _152  and  _153
REMARK   68  A    between atoms: _155  and  _157
REMARK   69  A    between atoms: _157  and  _158
REMARK   70  A    between atoms: _160  and  _162
REMARK   71  A    between atoms: _162  and  _163
REMARK   72  A    between atoms: _162  and  _165
REMARK   73  A    between atoms: _165  and  _166
REMARK   74  A    between atoms: _172  and  _174
REMARK   75  A    between atoms: _174  and  _175
REMARK   76  A    between atoms: _174  and  _177
REMARK   77  A    between atoms: _177  and  _178
REMARK   78  A    between atoms: _181  and  _183
REMARK   79  A    between atoms: _183  and  _184
REMARK   80  A    between atoms: _183  and  _186
REMARK   81  A    between atoms: _189  and  _191
REMARK   82  A    between atoms: _191  and  _192
REMARK   83  A    between atoms: _191  and  _194
REMARK   84  A    between atoms: _194  and  _195
REMARK   85  A    between atoms: _198  and  _200
REMARK   86  A    between atoms: _200  and  _201
REMARK   87  A    between atoms: _200  and  _203
REMARK   88  A    between atoms: _203  and  _204
REMARK   89  A    between atoms: _208  and  _209
REMARK   90  A    between atoms: _214  and  _216
REMARK   91  A    between atoms: _216  and  _217
REMARK   92  A    between atoms: _216  and  _219
REMARK   93  A    between atoms: _219  and  _220
REMARK   94  A    between atoms: _223  and  _225
REMARK   95  A    between atoms: _225  and  _226
REMARK   96  A    between atoms: _225  and  _228
REMARK   97  A    between atoms: _228  and  _229
REMARK   98  A    between atoms: _234  and  _236
REMARK   99  A    between atoms: _236  and  _237
REMARK  100  A    between atoms: _236  and  _239
REMARK  101  A    between atoms: _242  and  _244
REMARK  102  A    between atoms: _244  and  _245
REMARK  103  A    between atoms: _244  and  _247
REMARK  104  A    between atoms: _247  and  _248
REMARK  105  A    between atoms: _251  and  _253
REMARK  106  A    between atoms: _253  and  _254
REMARK  107  A    between atoms: _256  and  _258
REMARK  108  A    between atoms: _258  and  _259
REMARK  109  A    between atoms: _258  and  _261
REMARK  110  A    between atoms: _261  and  _262
REMARK  111  A    between atoms: _262  and  _263
REMARK  112  A    between atoms: _263  and  _264
REMARK  113  A    between atoms: _273  and  _275
REMARK  114  A    between atoms: _275  and  _276
REMARK  115  A    between atoms: _275  and  _278
REMARK  116  A    between atoms: _278  and  _279
REMARK  117  A    between atoms: _284  and  _286
REMARK  118  A    between atoms: _286  and  _287
REMARK  119  A    between atoms: _286  and  _289
REMARK  120  A    between atoms: _289  and  _290
REMARK  121  A    between atoms: _290  and  _291
REMARK  122  A    between atoms: _291  and  _292
REMARK  123  A    between atoms: _301  and  _303
REMARK  124  A    between atoms: _303  and  _304
REMARK  125  A    between atoms: _303  and  _306
REMARK  126  A    between atoms: _306  and  _307
REMARK  127  A    between atoms: _310  and  _312
REMARK  128  A    between atoms: _312  and  _313
REMARK  129  A    between atoms: _316  and  _318
REMARK  130  A    between atoms: _318  and  _319
REMARK  131  A    between atoms: _318  and  _321
REMARK  132  A    between atoms: _321  and  _322
REMARK  133  A    between atoms: _325  and  _327
REMARK  134  A    between atoms: _327  and  _328
REMARK  135  A    between atoms: _327  and  _330
REMARK  136  A    between atoms: _330  and  _331
REMARK  137  A    between atoms: _334  and  _336
REMARK  138  A    between atoms: _336  and  _337
REMARK  139  A    between atoms: _336  and  _339
REMARK  140  A    between atoms: _339  and  _340
REMARK  141  A    between atoms: _343  and  _345
REMARK  142  A    between atoms: _345  and  _346
REMARK  143  A    between atoms: _345  and  _348
REMARK  144  A    between atoms: _348  and  _349
REMARK  145  A    between atoms: _352  and  _354
REMARK  146  A    between atoms: _354  and  _355
REMARK  147  A    between atoms: _357  and  _359
REMARK  148  A    between atoms: _359  and  _360
REMARK  149  A    between atoms: _363  and  _365
REMARK  150  A    between atoms: _365  and  _366
REMARK  151  A    between atoms: _365  and  _368
REMARK  152  A    between atoms: _368  and  _369
REMARK  153  A    between atoms: _372  and  _374
REMARK  154  A    between atoms: _374  and  _375
REMARK  155  A    between atoms: _374  and  _377
REMARK  156  A    between atoms: _377  and  _378
REMARK  157  A    between atoms: _381  and  _383
REMARK  158  A    between atoms: _383  and  _384
REMARK  159  A    between atoms: _383  and  _386
REMARK  160  A    between atoms: _386  and  _387
REMARK  161  A    between atoms: _390  and  _392
REMARK  162  A    between atoms: _392  and  _393
REMARK  163  A    between atoms: _392  and  _395
REMARK  164  A    between atoms: _398  and  _400
REMARK  165  A    between atoms: _400  and  _401
REMARK  166  A    between atoms: _400  and  _403
REMARK  167  A    between atoms: _403  and  _404
REMARK  168  A    between atoms: _404  and  _405
REMARK  169  A    between atoms: _408  and  _410
REMARK  170  A    between atoms: _410  and  _411
REMARK  171  A    between atoms: _410  and  _413
REMARK  172  A    between atoms: _413  and  _414
REMARK  173  A    between atoms: _414  and  _415
REMARK  174  A    between atoms: _415  and  _416
REMARK  175  A    between atoms: _416  and  _417
REMARK  176  A    between atoms: _421  and  _423
REMARK  177  A    between atoms: _423  and  _424
REMARK  178  A    between atoms: _423  and  _426
REMARK  179  A    between atoms: _426  and  _427
REMARK  180  A    between atoms: _427  and  _428
REMARK  181  A    between atoms: _430  and  _432
REMARK  182  A    between atoms: _432  and  _433
REMARK  183  A    between atoms: _432  and  _435
REMARK  184  A    between atoms: _435  and  _436
REMARK  185  A    between atoms: _439  and  _441
REMARK  186  A    between atoms: _441  and  _442
REMARK  187  A    between atoms: _444  and  _446
REMARK  188  A    between atoms: _446  and  _447
REMARK  189  A    between atoms: _449  and  _451
REMARK  190  A    between atoms: _451  and  _452
REMARK  191  A    between atoms: _451  and  _454
REMARK  192  A    between atoms: _454  and  _455
REMARK  193  A    between atoms: _458  and  _460
REMARK  194  A    between atoms: _460  and  _461
REMARK  195  A    between atoms: _463  and  _465
REMARK  196  A    between atoms: _465  and  _466
REMARK  197  A    between atoms: _468  and  _470
REMARK  198  A    between atoms: _470  and  _471
REMARK  199  A    between atoms: _470  and  _473
REMARK  200  A    between atoms: _473  and  _474
REMARK  201  A    between atoms: _480  and  _482
REMARK  202  A    between atoms: _482  and  _483
REMARK  203  A    between atoms: _482  and  _485
REMARK  204  A    between atoms: _485  and  _486
REMARK  205  A    between atoms: _489  and  _491
REMARK  206  A    between atoms: _491  and  _492
REMARK  207  A    between atoms: _491  and  _494
REMARK  208  A    between atoms: _497  and  _499
REMARK  209  A    between atoms: _499  and  _500
REMARK  210  A    between atoms: _499  and  _502
REMARK  211  A    between atoms: _502  and  _503
REMARK  212  A    between atoms: _506  and  _508
REMARK  213  A    between atoms: _508  and  _509
REMARK  214  A    between atoms: _508  and  _511
REMARK  215  A    between atoms: _511  and  _512
REMARK  216  A    between atoms: _516  and  _517
REMARK  217  A    between atoms: _522  and  _524
REMARK  218  A    between atoms: _524  and  _525
REMARK  219  A    between atoms: _524  and  _527
REMARK  220  A    between atoms: _527  and  _528
REMARK  221  A    between atoms: _531  and  _533
REMARK  222  A    between atoms: _533  and  _534
REMARK  223  A    between atoms: _533  and  _536
REMARK  224  A    between atoms: _536  and  _537
REMARK  225  A    between atoms: _542  and  _544
REMARK  226  A    between atoms: _544  and  _545
REMARK  227  A    between atoms: _544  and  _547
REMARK  228  A    between atoms: _550  and  _552
REMARK  229  A    between atoms: _552  and  _553
REMARK  230  A    between atoms: _552  and  _555
REMARK  231  A    between atoms: _555  and  _556
REMARK  232  A    between atoms: _559  and  _561
REMARK  233  A    between atoms: _561  and  _562
REMARK  234  A    between atoms: _564  and  _566
REMARK  235  A    between atoms: _566  and  _567
REMARK  236  A    between atoms: _566  and  _569
REMARK  237  A    between atoms: _569  and  _570
REMARK  238  A    between atoms: _570  and  _571
REMARK  239  A    between atoms: _571  and  _572
REMARK                            x       y       z     vdW  Elec       q    Type
REMARK                         _______ _______ _______ _____ _____    ______ ____
ROOT
ATOM      1  O   HOH     1       8.595  36.330   5.744  0.00  0.00    +0.000 OA
ENDROOT
TORSDOF 0
REMARK  Name = ../refined-set-2016/4a6b/4a6b_pocket.pdb
REMARK  239 active torsions:
REMARK  status: ('A' for Active; 'I' for Inactive)
REMARK    1  A    between atoms: _1  and  _3
REMARK    2  A    between atoms: _3  and  _4
REMARK    3  A    between atoms: _3  and  _6
REMARK    4  A    between atoms: _6  and  _7
REMARK    5  A    between atoms: _7  and  _8
REMARK    6  A    between atoms: _8  and  _9
REMARK    7  A    between atoms: _18  and  _20
REMARK    8  A    between atoms: _20  and  _21
REMARK    9  A    between atoms: _20  and  _23
REMARK   10  A    between atoms: _23  and  _24
REMARK   11  A    between atoms: _27  and  _29
REMARK   12  A    between atoms: _29  and  _30
REMARK   13  A    between atoms: _29  and  _32
REMARK   14  A    between atoms: _32  and  _33
REMARK   15  A    between atoms: _36  and  _38
REMARK   16  A    between atoms: _38  and  _39
REMARK   17  A    between atoms: _38  and  _41
REMARK   18  A    between atoms: _41  and  _42
REMARK   19  A    between atoms: _45  and  _47
REMARK   20  A    between atoms: _47  and  _48
REMARK   21  A    between atoms: _47  and  _50
REMARK   22  A    between atoms: _50  and  _51
REMARK   23  A    between atoms: _54  and  _56
REMARK   24  A    between atoms: _56  and  _57
REMARK   25  A    between atoms: _59  and  _61
REMARK   26  A    between atoms: _61  and  _62
REMARK   27  A    between atoms: _65  and  _67
REMARK   28  A    between atoms: _67  and  _68
REMARK   29  A    between atoms: _67  and  _70
REMARK   30  A    between atoms: _70  and  _71
REMARK   31  A    between atoms: _74  and  _76
REMARK   32  A    between atoms: _76  and  _77
REMARK   33  A    between atoms: _76  and  _79
REMARK   34  A    between atoms: _79  and  _80
REMARK   35  A    between atoms: _83  and  _85
REMARK   36  A    between atoms: _85  and  _86
REMARK   37  A    between atoms: _85  and  _88
REMARK   38  A    between atoms: _88  and  _89
REMARK   39  A    between atoms: _92  and  _94
REMARK   40  A    between atoms: _94  and  _95
REMARK   41  A    between atoms: _94  and  _97
REMARK   42  A    between atoms: _100  and  _102
REMARK   43  A    between atoms: _102  and  _103
REMARK   44  A    between atoms: _102  and  _105
REMARK   45  A    between atoms: _105  and  _106
REMARK   46  A    between atoms: _106  and  _107
REMARK   47  A    between atoms: _107  and  _108
REMARK   48  A    between atoms: _108  and  _109
REMARK   49  A    between atoms: _113  and  _115
REMARK   50  A    between atoms: _115  and  _116
REMARK   51  A    between atoms: _115  and  _118
REMARK   52  A    between atoms: _118  and  _119
REMARK   53  A    between atoms: _119  and  _120
REMARK   54  A    between atoms: _122  and  _124
REMARK   55  A    between atoms: _124  and  _125
REMARK   56  A    between atoms: _124  and  _127
REMARK   57  A    between atoms: _127  and  _128
REMARK   58  A    between atoms: _131  and  _133
REMARK   59  A    between atoms: _133  and  _134
REMARK   60  A    between atoms: _136  and  _138
REMARK   61  A    between atoms: _138  and  _139
REMARK   62  A    between atoms: _141  and  _143
REMARK   63  A    between atoms: _143  and  _144
REMARK   64  A    between atoms: _143  and  _146
REMARK   65  A    between atoms: _146  and  _147
REMARK   66  A    between atoms: _150  and  _152
REMARK   67  A    between atoms: _152  and  _153
REMARK   68  A    between atoms: _155  and  _157
REMARK   69  A    between atoms: _157  and  _158
REMARK   70  A    between atoms: _160  and  _162
REMARK   71  A    between atoms: _162  and  _163
REMARK   72  A    between atoms: _162  and  _165
REMARK   73  A    between atoms: _165  and  _166
REMARK   74  A    between atoms: _172  and  _174
REMARK   75  A    between atoms: _174  and  _175
REMARK   76  A    between atoms: _174  and  _177
REMARK   77  A    between atoms: _177  and  _178
REMARK   78  A    between atoms: _181  and  _183
REMARK   79  A    between atoms: _183  and  _184
REMARK   80  A    between atoms: _183  and  _186
REMARK   81  A    between atoms: _189  and  _191
REMARK   82  A    between atoms: _191  and  _192
REMARK   83  A    between atoms: _191  and  _194
REMARK   84  A    between atoms: _194  and  _195
REMARK   85  A    between atoms: _198  and  _200
REMARK   86  A    between atoms: _200  and  _201
REMARK   87  A    between atoms: _200  and  _203
REMARK   88  A    between atoms: _203  and  _204
REMARK   89  A    between atoms: _208  and  _209
REMARK   90  A    between atoms: _214  and  _216
REMARK   91  A    between atoms: _216  and  _217
REMARK   92  A    between atoms: _216  and  _219
REMARK   93  A    between atoms: _219  and  _220
REMARK   94  A    between atoms: _223  and  _225
REMARK   95  A    between atoms: _225  and  _226
REMARK   96  A    between atoms: _225  and  _228
REMARK   97  A    between atoms: _228  and  _229
REMARK   98  A    between atoms: _234  and  _236
REMARK   99  A    between atoms: _236  and  _237
REMARK  100  A    between atoms: _236  and  _239
REMARK  101  A    between atoms: _242  and  _244
REMARK  102  A    between atoms: _244  and  _245
REMARK  103  A    between atoms: _244  and  _247
REMARK  104  A    between atoms: _247  and  _248
REMARK  105  A    between atoms: _251  and  _253
REMARK  106  A    between atoms: _253  and  _254
REMARK  107  A    between atoms: _256  and  _258
REMARK  108  A    between atoms: _258  and  _259
REMARK  109  A    between atoms: _258  and  _261
REMARK  110  A    between atoms: _261  and  _262
REMARK  111  A    between atoms: _262  and  _263
REMARK  112  A    between atoms: _263  and  _264
REMARK  113  A    between atoms: _273  and  _275
REMARK  114  A    between atoms: _275  and  _276
REMARK  115  A    between atoms: _275  and  _278
REMARK  116  A    between atoms: _278  and  _279
REMARK  117  A    between atoms: _284  and  _286
REMARK  118  A    between atoms: _286  and  _287
REMARK  119  A    between atoms: _286  and  _289
REMARK  120  A    between atoms: _289  and  _290
REMARK  121  A    between atoms: _290  and  _291
REMARK  122  A    between atoms: _291  and  _292
REMARK  123  A    between atoms: _301  and  _303
REMARK  124  A    between atoms: _303  and  _304
REMARK  125  A    between atoms: _303  and  _306
REMARK  126  A    between atoms: _306  and  _307
REMARK  127  A    between atoms: _310  and  _312
REMARK  128  A    between atoms: _312  and  _313
REMARK  129  A    between atoms: _316  and  _318
REMARK  130  A    between atoms: _318  and  _319
REMARK  131  A    between atoms: _318  and  _321
REMARK  132  A    between atoms: _321  and  _322
REMARK  133  A    between atoms: _325  and  _327
REMARK  134  A    between atoms: _327  and  _328
REMARK  135  A    between atoms: _327  and  _330
REMARK  136  A    between atoms: _330  and  _331
REMARK  137  A    between atoms: _334  and  _336
REMARK  138  A    between atoms: _336  and  _337
REMARK  139  A    between atoms: _336  and  _339
REMARK  140  A    between atoms: _339  and  _340
REMARK  141  A    between atoms: _343  and  _345
REMARK  142  A    between atoms: _345  and  _346
REMARK  143  A    between atoms: _345  and  _348
REMARK  144  A    between atoms: _348  and  _349
REMARK  145  A    between atoms: _352  and  _354
REMARK  146  A    between atoms: _354  and  _355
REMARK  147  A    between atoms: _357  and  _359
REMARK  148  A    between atoms: _359  and  _360
REMARK  149  A    between atoms: _363  and  _365
REMARK  150  A    between atoms: _365  and  _366
REMARK  151  A    between atoms: _365  and  _368
REMARK  152  A    between atoms: _368  and  _369
REMARK  153  A    between atoms: _372  and  _374
REMARK  154  A    between atoms: _374  and  _375
REMARK  155  A    between atoms: _374  and  _377
REMARK  156  A    between atoms: _377  and  _378
REMARK  157  A    between atoms: _381  and  _383
REMARK  158  A    between atoms: _383  and  _384
REMARK  159  A    between atoms: _383  and  _386
REMARK  160  A    between atoms: _386  and  _387
REMARK  161  A    between atoms: _390  and  _392
REMARK  162  A    between atoms: _392  and  _393
REMARK  163  A    between atoms: _392  and  _395
REMARK  164  A    between atoms: _398  and  _400
REMARK  165  A    between atoms: _400  and  _401
REMARK  166  A    between atoms: _400  and  _403
REMARK  167  A    between atoms: _403  and  _404
REMARK  168  A    between atoms: _404  and  _405
REMARK  169  A    between atoms: _408  and  _410
REMARK  170  A    between atoms: _410  and  _411
REMARK  171  A    between atoms: _410  and  _413
REMARK  172  A    between atoms: _413  and  _414
REMARK  173  A    between atoms: _414  and  _415
REMARK  174  A    between atoms: _415  and  _416
REMARK  175  A    between atoms: _416  and  _417
REMARK  176  A    between atoms: _421  and  _423
REMARK  177  A    between atoms: _423  and  _424
REMARK  178  A    between atoms: _423  and  _426
REMARK  179  A    between atoms: _426  and  _427
REMARK  180  A    between atoms: _427  and  _428
REMARK  181  A    between atoms: _430  and  _432
REMARK  182  A    between atoms: _432  and  _433
REMARK  183  A    between atoms: _432  and  _435
REMARK  184  A    between atoms: _435  and  _436
REMARK  185  A    between atoms: _439  and  _441
REMARK  186  A    between atoms: _441  and  _442
REMARK  187  A    between atoms: _444  and  _446
REMARK  188  A    between atoms: _446  and  _447
REMARK  189  A    between atoms: _449  and  _451
REMARK  190  A    between atoms: _451  and  _452
REMARK  191  A    between atoms: _451  and  _454
REMARK  192  A    between atoms: _454  and  _455
REMARK  193  A    between atoms: _458  and  _460
REMARK  194  A    between atoms: _460  and  _461
REMARK  195  A    between atoms: _463  and  _465
REMARK  196  A    between atoms: _465  and  _466
REMARK  197  A    between atoms: _468  and  _470
REMARK  198  A    between atoms: _470  and  _471
REMARK  199  A    between atoms: _470  and  _473
REMARK  200  A    between atoms: _473  and  _474
REMARK  201  A    between atoms: _480  and  _482
REMARK  202  A    between atoms: _482  and  _483
REMARK  203  A    between atoms: _482  and  _485
REMARK  204  A    between atoms: _485  and  _486
REMARK  205  A    between atoms: _489  and  _491
REMARK  206  A    between atoms: _491  and  _492
REMARK  207  A    between atoms: _491  and  _494
REMARK  208  A    between atoms: _497  and  _499
REMARK  209  A    between atoms: _499  and  _500
REMARK  210  A    between atoms: _499  and  _502
REMARK  211  A    between atoms: _502  and  _503
REMARK  212  A    between atoms: _506  and  _508
REMARK  213  A    between atoms: _508  and  _509
REMARK  214  A    between atoms: _508  and  _511
REMARK  215  A    between atoms: _511  and  _512
REMARK  216  A    between atoms: _516  and  _517
REMARK  217  A    between atoms: _522  and  _524
REMARK  218  A    between atoms: _524  and  _525
REMARK  219  A    between atoms: _524  and  _527
REMARK  220  A    between atoms: _527  and  _528
REMARK  221  A    between atoms: _531  and  _533
REMARK  222  A    between atoms: _533  and  _534
REMARK  223  A    between atoms: _533  and  _536
REMARK  224  A    between atoms: _536  and  _537
REMARK  225  A    between atoms: _542  and  _544
REMARK  226  A    between atoms: _544  and  _545
REMARK  227  A    between atoms: _544  and  _547
REMARK  228  A    between atoms: _550  and  _552
REMARK  229  A    between atoms: _552  and  _553
REMARK  230  A    between atoms: _552  and  _555
REMARK  231  A    between atoms: _555  and  _556
REMARK  232  A    between atoms: _559  and  _561
REMARK  233  A    between atoms: _561  and  _562
REMARK  234  A    between atoms: _564  and  _566
REMARK  235  A    between atoms: _566  and  _567
REMARK  236  A    between atoms: _566  and  _569
REMARK  237  A    between atoms: _569  and  _570
REMARK  238  A    between atoms: _570  and  _571
REMARK  239  A    between atoms: _571  and  _572
REMARK                            x       y       z     vdW  Elec       q    Type
REMARK                         _______ _______ _______ _____ _____    ______ ____
ROOT
ATOM      1  O   HOH     1       5.366  31.460   9.241  0.00  0.00    +0.000 OA
ENDROOT
TORSDOF 0
REMARK  Name = ../refined-set-2016/4a6b/4a6b_pocket.pdb
REMARK  239 active torsions:
REMARK  status: ('A' for Active; 'I' for Inactive)
REMARK    1  A    between atoms: _1  and  _3
REMARK    2  A    between atoms: _3  and  _4
REMARK    3  A    between atoms: _3  and  _6
REMARK    4  A    between atoms: _6  and  _7
REMARK    5  A    between atoms: _7  and  _8
REMARK    6  A    between atoms: _8  and  _9
REMARK    7  A    between atoms: _18  and  _20
REMARK    8  A    between atoms: _20  and  _21
REMARK    9  A    between atoms: _20  and  _23
REMARK   10  A    between atoms: _23  and  _24
REMARK   11  A    between atoms: _27  and  _29
REMARK   12  A    between atoms: _29  and  _30
REMARK   13  A    between atoms: _29  and  _32
REMARK   14  A    between atoms: _32  and  _33
REMARK   15  A    between atoms: _36  and  _38
REMARK   16  A    between atoms: _38  and  _39
REMARK   17  A    between atoms: _38  and  _41
REMARK   18  A    between atoms: _41  and  _42
REMARK   19  A    between atoms: _45  and  _47
REMARK   20  A    between atoms: _47  and  _48
REMARK   21  A    between atoms: _47  and  _50
REMARK   22  A    between atoms: _50  and  _51
REMARK   23  A    between atoms: _54  and  _56
REMARK   24  A    between atoms: _56  and  _57
REMARK   25  A    between atoms: _59  and  _61
REMARK   26  A    between atoms: _61  and  _62
REMARK   27  A    between atoms: _65  and  _67
REMARK   28  A    between atoms: _67  and  _68
REMARK   29  A    between atoms: _67  and  _70
REMARK   30  A    between atoms: _70  and  _71
REMARK   31  A    between atoms: _74  and  _76
REMARK   32  A    between atoms: _76  and  _77
REMARK   33  A    between atoms: _76  and  _79
REMARK   34  A    between atoms: _79  and  _80
REMARK   35  A    between atoms: _83  and  _85
REMARK   36  A    between atoms: _85  and  _86
REMARK   37  A    between atoms: _85  and  _88
REMARK   38  A    between atoms: _88  and  _89
REMARK   39  A    between atoms: _92  and  _94
REMARK   40  A    between atoms: _94  and  _95
REMARK   41  A    between atoms: _94  and  _97
REMARK   42  A    between atoms: _100  and  _102
REMARK   43  A    between atoms: _102  and  _103
REMARK   44  A    between atoms: _102  and  _105
REMARK   45  A    between atoms: _105  and  _106
REMARK   46  A    between atoms: _106  and  _107
REMARK   47  A    between atoms: _107  and  _108
REMARK   48  A    between atoms: _108  and  _109
REMARK   49  A    between atoms: _113  and  _115
REMARK   50  A    between atoms: _115  and  _116
REMARK   51  A    between atoms: _115  and  _118
REMARK   52  A    between atoms: _118  and  _119
REMARK   53  A    between atoms: _119  and  _120
REMARK   54  A    between atoms: _122  and  _124
REMARK   55  A    between atoms: _124  and  _125
REMARK   56  A    between atoms: _124  and  _127
REMARK   57  A    between atoms: _127  and  _128
REMARK   58  A    between atoms: _131  and  _133
REMARK   59  A    between atoms: _133  and  _134
REMARK   60  A    between atoms: _136  and  _138
REMARK   61  A    between atoms: _138  and  _139
REMARK   62  A    between atoms: _141  and  _143
REMARK   63  A    between atoms: _143  and  _144
REMARK   64  A    between atoms: _143  and  _146
REMARK   65  A    between atoms: _146  and  _147
REMARK   66  A    between atoms: _150  and  _152
REMARK   67  A    between atoms: _152  and  _153
REMARK   68  A    between atoms: _155  and  _157
REMARK   69  A    between atoms: _157  and  _158
REMARK   70  A    between atoms: _160  and  _162
REMARK   71  A    between atoms: _162  and  _163
REMARK   72  A    between atoms: _162  and  _165
REMARK   73  A    between atoms: _165  and  _166
REMARK   74  A    between atoms: _172  and  _174
REMARK   75  A    between atoms: _174  and  _175
REMARK   76  A    between atoms: _174  and  _177
REMARK   77  A    between atoms: _177  and  _178
REMARK   78  A    between atoms: _181  and  _183
REMARK   79  A    between atoms: _183  and  _184
REMARK   80  A    between atoms: _183  and  _186
REMARK   81  A    between atoms: _189  and  _191
REMARK   82  A    between atoms: _191  and  _192
REMARK   83  A    between atoms: _191  and  _194
REMARK   84  A    between atoms: _194  and  _195
REMARK   85  A    between atoms: _198  and  _200
REMARK   86  A    between atoms: _200  and  _201
REMARK   87  A    between atoms: _200  and  _203
REMARK   88  A    between atoms: _203  and  _204
REMARK   89  A    between atoms: _208  and  _209
REMARK   90  A    between atoms: _214  and  _216
REMARK   91  A    between atoms: _216  and  _217
REMARK   92  A    between atoms: _216  and  _219
REMARK   93  A    between atoms: _219  and  _220
REMARK   94  A    between atoms: _223  and  _225
REMARK   95  A    between atoms: _225  and  _226
REMARK   96  A    between atoms: _225  and  _228
REMARK   97  A    between atoms: _228  and  _229
REMARK   98  A    between atoms: _234  and  _236
REMARK   99  A    between atoms: _236  and  _237
REMARK  100  A    between atoms: _236  and  _239
REMARK  101  A    between atoms: _242  and  _244
REMARK  102  A    between atoms: _244  and  _245
REMARK  103  A    between atoms: _244  and  _247
REMARK  104  A    between atoms: _247  and  _248
REMARK  105  A    between atoms: _251  and  _253
REMARK  106  A    between atoms: _253  and  _254
REMARK  107  A    between atoms: _256  and  _258
REMARK  108  A    between atoms: _258  and  _259
REMARK  109  A    between atoms: _258  and  _261
REMARK  110  A    between atoms: _261  and  _262
REMARK  111  A    between atoms: _262  and  _263
REMARK  112  A    between atoms: _263  and  _264
REMARK  113  A    between atoms: _273  and  _275
REMARK  114  A    between atoms: _275  and  _276
REMARK  115  A    between atoms: _275  and  _278
REMARK  116  A    between atoms: _278  and  _279
REMARK  117  A    between atoms: _284  and  _286
REMARK  118  A    between atoms: _286  and  _287
REMARK  119  A    between atoms: _286  and  _289
REMARK  120  A    between atoms: _289  and  _290
REMARK  121  A    between atoms: _290  and  _291
REMARK  122  A    between atoms: _291  and  _292
REMARK  123  A    between atoms: _301  and  _303
REMARK  124  A    between atoms: _303  and  _304
REMARK  125  A    between atoms: _303  and  _306
REMARK  126  A    between atoms: _306  and  _307
REMARK  127  A    between atoms: _310  and  _312
REMARK  128  A    between atoms: _312  and  _313
REMARK  129  A    between atoms: _316  and  _318
REMARK  130  A    between atoms: _318  and  _319
REMARK  131  A    between atoms: _318  and  _321
REMARK  132  A    between atoms: _321  and  _322
REMARK  133  A    between atoms: _325  and  _327
REMARK  134  A    between atoms: _327  and  _328
REMARK  135  A    between atoms: _327  and  _330
REMARK  136  A    between atoms: _330  and  _331
REMARK  137  A    between atoms: _334  and  _336
REMARK  138  A    between atoms: _336  and  _337
REMARK  139  A    between atoms: _336  and  _339
REMARK  140  A    between atoms: _339  and  _340
REMARK  141  A    between atoms: _343  and  _345
REMARK  142  A    between atoms: _345  and  _346
REMARK  143  A    between atoms: _345  and  _348
REMARK  144  A    between atoms: _348  and  _349
REMARK  145  A    between atoms: _352  and  _354
REMARK  146  A    between atoms: _354  and  _355
REMARK  147  A    between atoms: _357  and  _359
REMARK  148  A    between atoms: _359  and  _360
REMARK  149  A    between atoms: _363  and  _365
REMARK  150  A    between atoms: _365  and  _366
REMARK  151  A    between atoms: _365  and  _368
REMARK  152  A    between atoms: _368  and  _369
REMARK  153  A    between atoms: _372  and  _374
REMARK  154  A    between atoms: _374  and  _375
REMARK  155  A    between atoms: _374  and  _377
REMARK  156  A    between atoms: _377  and  _378
REMARK  157  A    between atoms: _381  and  _383
REMARK  158  A    between atoms: _383  and  _384
REMARK  159  A    between atoms: _383  and  _386
REMARK  160  A    between atoms: _386  and  _387
REMARK  161  A    between atoms: _390  and  _392
REMARK  162  A    between atoms: _392  and  _393
REMARK  163  A    between atoms: _392  and  _395
REMARK  164  A    between atoms: _398  and  _400
REMARK  165  A    between atoms: _400  and  _401
REMARK  166  A    between atoms: _400  and  _403
REMARK  167  A    between atoms: _403  and  _404
REMARK  168  A    between atoms: _404  and  _405
REMARK  169  A    between atoms: _408  and  _410
REMARK  170  A    between atoms: _410  and  _411
REMARK  171  A    between atoms: _410  and  _413
REMARK  172  A    between atoms: _413  and  _414
REMARK  173  A    between atoms: _414  and  _415
REMARK  174  A    between atoms: _415  and  _416
REMARK  175  A    between atoms: _416  and  _417
REMARK  176  A    between atoms: _421  and  _423
REMARK  177  A    between atoms: _423  and  _424
REMARK  178  A    between atoms: _423  and  _426
REMARK  179  A    between atoms: _426  and  _427
REMARK  180  A    between atoms: _427  and  _428
REMARK  181  A    between atoms: _430  and  _432
REMARK  182  A    between atoms: _432  and  _433
REMARK  183  A    between atoms: _432  and  _435
REMARK  184  A    between atoms: _435  and  _436
REMARK  185  A    between atoms: _439  and  _441
REMARK  186  A    between atoms: _441  and  _442
REMARK  187  A    between atoms: _444  and  _446
REMARK  188  A    between atoms: _446  and  _447
REMARK  189  A    between atoms: _449  and  _451
REMARK  190  A    between atoms: _451  and  _452
REMARK  191  A    between atoms: _451  and  _454
REMARK  192  A    between atoms: _454  and  _455
REMARK  193  A    between atoms: _458  and  _460
REMARK  194  A    between atoms: _460  and  _461
REMARK  195  A    between atoms: _463  and  _465
REMARK  196  A    between atoms: _465  and  _466
REMARK  197  A    between atoms: _468  and  _470
REMARK  198  A    between atoms: _470  and  _471
REMARK  199  A    between atoms: _470  and  _473
REMARK  200  A    between atoms: _473  and  _474
REMARK  201  A    between atoms: _480  and  _482
REMARK  202  A    between atoms: _482  and  _483
REMARK  203  A    between atoms: _482  and  _485
REMARK  204  A    between atoms: _485  and  _486
REMARK  205  A    between atoms: _489  and  _491
REMARK  206  A    between atoms: _491  and  _492
REMARK  207  A    between atoms: _491  and  _494
REMARK  208  A    between atoms: _497  and  _499
REMARK  209  A    between atoms: _499  and  _500
REMARK  210  A    between atoms: _499  and  _502
REMARK  211  A    between atoms: _502  and  _503
REMARK  212  A    between atoms: _506  and  _508
REMARK  213  A    between atoms: _508  and  _509
REMARK  214  A    between atoms: _508  and  _511
REMARK  215  A    between atoms: _511  and  _512
REMARK  216  A    between atoms: _516  and  _517
REMARK  217  A    between atoms: _522  and  _524
REMARK  218  A    between atoms: _524  and  _525
REMARK  219  A    between atoms: _524  and  _527
REMARK  220  A    between atoms: _527  and  _528
REMARK  221  A    between atoms: _531  and  _533
REMARK  222  A    between atoms: _533  and  _534
REMARK  223  A    between atoms: _533  and  _536
REMARK  224  A    between atoms: _536  and  _537
REMARK  225  A    between atoms: _542  and  _544
REMARK  226  A    between atoms: _544  and  _545
REMARK  227  A    between atoms: _544  and  _547
REMARK  228  A    between atoms: _550  and  _552
REMARK  229  A    between atoms: _552  and  _553
REMARK  230  A    between atoms: _552  and  _555
REMARK  231  A    between atoms: _555  and  _556
REMARK  232  A    between atoms: _559  and  _561
REMARK  233  A    between atoms: _561  and  _562
REMARK  234  A    between atoms: _564  and  _566
REMARK  235  A    between atoms: _566  and  _567
REMARK  236  A    between atoms: _566  and  _569
REMARK  237  A    between atoms: _569  and  _570
REMARK  238  A    between atoms: _570  and  _571
REMARK  239  A    between atoms: _571  and  _572
REMARK                            x       y       z     vdW  Elec       q    Type
REMARK                         _______ _______ _______ _____ _____    ______ ____
ROOT
ATOM      1  O   HOH     1       2.916  25.533   6.861  0.00  0.00    +0.000 OA
ENDROOT
TORSDOF 0
REMARK  Name = ../refined-set-2016/4a6b/4a6b_pocket.pdb
REMARK  239 active torsions:
REMARK  status: ('A' for Active; 'I' for Inactive)
REMARK    1  A    between atoms: _1  and  _3
REMARK    2  A    between atoms: _3  and  _4
REMARK    3  A    between atoms: _3  and  _6
REMARK    4  A    between atoms: _6  and  _7
REMARK    5  A    between atoms: _7  and  _8
REMARK    6  A    between atoms: _8  and  _9
REMARK    7  A    between atoms: _18  and  _20
REMARK    8  A    between atoms: _20  and  _21
REMARK    9  A    between atoms: _20  and  _23
REMARK   10  A    between atoms: _23  and  _24
REMARK   11  A    between atoms: _27  and  _29
REMARK   12  A    between atoms: _29  and  _30
REMARK   13  A    between atoms: _29  and  _32
REMARK   14  A    between atoms: _32  and  _33
REMARK   15  A    between atoms: _36  and  _38
REMARK   16  A    between atoms: _38  and  _39
REMARK   17  A    between atoms: _38  and  _41
REMARK   18  A    between atoms: _41  and  _42
REMARK   19  A    between atoms: _45  and  _47
REMARK   20  A    between atoms: _47  and  _48
REMARK   21  A    between atoms: _47  and  _50
REMARK   22  A    between atoms: _50  and  _51
REMARK   23  A    between atoms: _54  and  _56
REMARK   24  A    between atoms: _56  and  _57
REMARK   25  A    between atoms: _59  and  _61
REMARK   26  A    between atoms: _61  and  _62
REMARK   27  A    between atoms: _65  and  _67
REMARK   28  A    between atoms: _67  and  _68
REMARK   29  A    between atoms: _67  and  _70
REMARK   30  A    between atoms: _70  and  _71
REMARK   31  A    between atoms: _74  and  _76
REMARK   32  A    between atoms: _76  and  _77
REMARK   33  A    between atoms: _76  and  _79
REMARK   34  A    between atoms: _79  and  _80
REMARK   35  A    between atoms: _83  and  _85
REMARK   36  A    between atoms: _85  and  _86
REMARK   37  A    between atoms: _85  and  _88
REMARK   38  A    between atoms: _88  and  _89
REMARK   39  A    between atoms: _92  and  _94
REMARK   40  A    between atoms: _94  and  _95
REMARK   41  A    between atoms: _94  and  _97
REMARK   42  A    between atoms: _100  and  _102
REMARK   43  A    between atoms: _102  and  _103
REMARK   44  A    between atoms: _102  and  _105
REMARK   45  A    between atoms: _105  and  _106
REMARK   46  A    between atoms: _106  and  _107
REMARK   47  A    between atoms: _107  and  _108
REMARK   48  A    between atoms: _108  and  _109
REMARK   49  A    between atoms: _113  and  _115
REMARK   50  A    between atoms: _115  and  _116
REMARK   51  A    between atoms: _115  and  _118
REMARK   52  A    between atoms: _118  and  _119
REMARK   53  A    between atoms: _119  and  _120
REMARK   54  A    between atoms: _122  and  _124
REMARK   55  A    between atoms: _124  and  _125
REMARK   56  A    between atoms: _124  and  _127
REMARK   57  A    between atoms: _127  and  _128
REMARK   58  A    between atoms: _131  and  _133
REMARK   59  A    between atoms: _133  and  _134
REMARK   60  A    between atoms: _136  and  _138
REMARK   61  A    between atoms: _138  and  _139
REMARK   62  A    between atoms: _141  and  _143
REMARK   63  A    between atoms: _143  and  _144
REMARK   64  A    between atoms: _143  and  _146
REMARK   65  A    between atoms: _146  and  _147
REMARK   66  A    between atoms: _150  and  _152
REMARK   67  A    between atoms: _152  and  _153
REMARK   68  A    between atoms: _155  and  _157
REMARK   69  A    between atoms: _157  and  _158
REMARK   70  A    between atoms: _160  and  _162
REMARK   71  A    between atoms: _162  and  _163
REMARK   72  A    between atoms: _162  and  _165
REMARK   73  A    between atoms: _165  and  _166
REMARK   74  A    between atoms: _172  and  _174
REMARK   75  A    between atoms: _174  and  _175
REMARK   76  A    between atoms: _174  and  _177
REMARK   77  A    between atoms: _177  and  _178
REMARK   78  A    between atoms: _181  and  _183
REMARK   79  A    between atoms: _183  and  _184
REMARK   80  A    between atoms: _183  and  _186
REMARK   81  A    between atoms: _189  and  _191
REMARK   82  A    between atoms: _191  and  _192
REMARK   83  A    between atoms: _191  and  _194
REMARK   84  A    between atoms: _194  and  _195
REMARK   85  A    between atoms: _198  and  _200
REMARK   86  A    between atoms: _200  and  _201
REMARK   87  A    between atoms: _200  and  _203
REMARK   88  A    between atoms: _203  and  _204
REMARK   89  A    between atoms: _208  and  _209
REMARK   90  A    between atoms: _214  and  _216
REMARK   91  A    between atoms: _216  and  _217
REMARK   92  A    between atoms: _216  and  _219
REMARK   93  A    between atoms: _219  and  _220
REMARK   94  A    between atoms: _223  and  _225
REMARK   95  A    between atoms: _225  and  _226
REMARK   96  A    between atoms: _225  and  _228
REMARK   97  A    between atoms: _228  and  _229
REMARK   98  A    between atoms: _234  and  _236
REMARK   99  A    between atoms: _236  and  _237
REMARK  100  A    between atoms: _236  and  _239
REMARK  101  A    between atoms: _242  and  _244
REMARK  102  A    between atoms: _244  and  _245
REMARK  103  A    between atoms: _244  and  _247
REMARK  104  A    between atoms: _247  and  _248
REMARK  105  A    between atoms: _251  and  _253
REMARK  106  A    between atoms: _253  and  _254
REMARK  107  A    between atoms: _256  and  _258
REMARK  108  A    between atoms: _258  and  _259
REMARK  109  A    between atoms: _258  and  _261
REMARK  110  A    between atoms: _261  and  _262
REMARK  111  A    between atoms: _262  and  _263
REMARK  112  A    between atoms: _263  and  _264
REMARK  113  A    between atoms: _273  and  _275
REMARK  114  A    between atoms: _275  and  _276
REMARK  115  A    between atoms: _275  and  _278
REMARK  116  A    between atoms: _278  and  _279
REMARK  117  A    between atoms: _284  and  _286
REMARK  118  A    between atoms: _286  and  _287
REMARK  119  A    between atoms: _286  and  _289
REMARK  120  A    between atoms: _289  and  _290
REMARK  121  A    between atoms: _290  and  _291
REMARK  122  A    between atoms: _291  and  _292
REMARK  123  A    between atoms: _301  and  _303
REMARK  124  A    between atoms: _303  and  _304
REMARK  125  A    between atoms: _303  and  _306
REMARK  126  A    between atoms: _306  and  _307
REMARK  127  A    between atoms: _310  and  _312
REMARK  128  A    between atoms: _312  and  _313
REMARK  129  A    between atoms: _316  and  _318
REMARK  130  A    between atoms: _318  and  _319
REMARK  131  A    between atoms: _318  and  _321
REMARK  132  A    between atoms: _321  and  _322
REMARK  133  A    between atoms: _325  and  _327
REMARK  134  A    between atoms: _327  and  _328
REMARK  135  A    between atoms: _327  and  _330
REMARK  136  A    between atoms: _330  and  _331
REMARK  137  A    between atoms: _334  and  _336
REMARK  138  A    between atoms: _336  and  _337
REMARK  139  A    between atoms: _336  and  _339
REMARK  140  A    between atoms: _339  and  _340
REMARK  141  A    between atoms: _343  and  _345
REMARK  142  A    between atoms: _345  and  _346
REMARK  143  A    between atoms: _345  and  _348
REMARK  144  A    between atoms: _348  and  _349
REMARK  145  A    between atoms: _352  and  _354
REMARK  146  A    between atoms: _354  and  _355
REMARK  147  A    between atoms: _357  and  _359
REMARK  148  A    between atoms: _359  and  _360
REMARK  149  A    between atoms: _363  and  _365
REMARK  150  A    between atoms: _365  and  _366
REMARK  151  A    between atoms: _365  and  _368
REMARK  152  A    between atoms: _368  and  _369
REMARK  153  A    between atoms: _372  and  _374
REMARK  154  A    between atoms: _374  and  _375
REMARK  155  A    between atoms: _374  and  _377
REMARK  156  A    between atoms: _377  and  _378
REMARK  157  A    between atoms: _381  and  _383
REMARK  158  A    between atoms: _383  and  _384
REMARK  159  A    between atoms: _383  and  _386
REMARK  160  A    between atoms: _386  and  _387
REMARK  161  A    between atoms: _390  and  _392
REMARK  162  A    between atoms: _392  and  _393
REMARK  163  A    between atoms: _392  and  _395
REMARK  164  A    between atoms: _398  and  _400
REMARK  165  A    between atoms: _400  and  _401
REMARK  166  A    between atoms: _400  and  _403
REMARK  167  A    between atoms: _403  and  _404
REMARK  168  A    between atoms: _404  and  _405
REMARK  169  A    between atoms: _408  and  _410
REMARK  170  A    between atoms: _410  and  _411
REMARK  171  A    between atoms: _410  and  _413
REMARK  172  A    between atoms: _413  and  _414
REMARK  173  A    between atoms: _414  and  _415
REMARK  174  A    between atoms: _415  and  _416
REMARK  175  A    between atoms: _416  and  _417
REMARK  176  A    between atoms: _421  and  _423
REMARK  177  A    between atoms: _423  and  _424
REMARK  178  A    between atoms: _423  and  _426
REMARK  179  A    between atoms: _426  and  _427
REMARK  180  A    between atoms: _427  and  _428
REMARK  181  A    between atoms: _430  and  _432
REMARK  182  A    between atoms: _432  and  _433
REMARK  183  A    between atoms: _432  and  _435
REMARK  184  A    between atoms: _435  and  _436
REMARK  185  A    between atoms: _439  and  _441
REMARK  186  A    between atoms: _441  and  _442
REMARK  187  A    between atoms: _444  and  _446
REMARK  188  A    between atoms: _446  and  _447
REMARK  189  A    between atoms: _449  and  _451
REMARK  190  A    between atoms: _451  and  _452
REMARK  191  A    between atoms: _451  and  _454
REMARK  192  A    between atoms: _454  and  _455
REMARK  193  A    between atoms: _458  and  _460
REMARK  194  A    between atoms: _460  and  _461
REMARK  195  A    between atoms: _463  and  _465
REMARK  196  A    between atoms: _465  and  _466
REMARK  197  A    between atoms: _468  and  _470
REMARK  198  A    between atoms: _470  and  _471
REMARK  199  A    between atoms: _470  and  _473
REMARK  200  A    between atoms: _473  and  _474
REMARK  201  A    between atoms: _480  and  _482
REMARK  202  A    between atoms: _482  and  _483
REMARK  203  A    between atoms: _482  and  _485
REMARK  204  A    between atoms: _485  and  _486
REMARK  205  A    between atoms: _489  and  _491
REMARK  206  A    between atoms: _491  and  _492
REMARK  207  A    between atoms: _491  and  _494
REMARK  208  A    between atoms: _497  and  _499
REMARK  209  A    between atoms: _499  and  _500
REMARK  210  A    between atoms: _499  and  _502
REMARK  211  A    between atoms: _502  and  _503
REMARK  212  A    between atoms: _506  and  _508
REMARK  213  A    between atoms: _508  and  _509
REMARK  214  A    between atoms: _508  and  _511
REMARK  215  A    between atoms: _511  and  _512
REMARK  216  A    between atoms: _516  and  _517
REMARK  217  A    between atoms: _522  and  _524
REMARK  218  A    between atoms: _524  and  _525
REMARK  219  A    between atoms: _524  and  _527
REMARK  220  A    between atoms: _527  and  _528
REMARK  221  A    between atoms: _531  and  _533
REMARK  222  A    between atoms: _533  and  _534
REMARK  223  A    between atoms: _533  and  _536
REMARK  224  A    between atoms: _536  and  _537
REMARK  225  A    between atoms: _542  and  _544
REMARK  226  A    between atoms: _544  and  _545
REMARK  227  A    between atoms: _544  and  _547
REMARK  228  A    between atoms: _550  and  _552
REMARK  229  A    between atoms: _552  and  _553
REMARK  230  A    between atoms: _552  and  _555
REMARK  231  A    between atoms: _555  and  _556
REMARK  232  A    between atoms: _559  and  _561
REMARK  233  A    between atoms: _561  and  _562
REMARK  234  A    between atoms: _564  and  _566
REMARK  235  A    between atoms: _566  and  _567
REMARK  236  A    between atoms: _566  and  _569
REMARK  237  A    between atoms: _569  and  _570
REMARK  238  A    between atoms: _570  and  _571
REMARK  239  A    between atoms: _571  and  _572
REMARK                            x       y       z     vdW  Elec       q    Type
REMARK                         _______ _______ _______ _____ _____    ______ ____
ROOT
ATOM      1  O   HOH     1       3.824  24.114   4.394  0.00  0.00    +0.000 OA
ENDROOT
TORSDOF 0
REMARK  Name = ../refined-set-2016/4a6b/4a6b_pocket.pdb
REMARK  239 active torsions:
REMARK  status: ('A' for Active; 'I' for Inactive)
REMARK    1  A    between atoms: _1  and  _3
REMARK    2  A    between atoms: _3  and  _4
REMARK    3  A    between atoms: _3  and  _6
REMARK    4  A    between atoms: _6  and  _7
REMARK    5  A    between atoms: _7  and  _8
REMARK    6  A    between atoms: _8  and  _9
REMARK    7  A    between atoms: _18  and  _20
REMARK    8  A    between atoms: _20  and  _21
REMARK    9  A    between atoms: _20  and  _23
REMARK   10  A    between atoms: _23  and  _24
REMARK   11  A    between atoms: _27  and  _29
REMARK   12  A    between atoms: _29  and  _30
REMARK   13  A    between atoms: _29  and  _32
REMARK   14  A    between atoms: _32  and  _33
REMARK   15  A    between atoms: _36  and  _38
REMARK   16  A    between atoms: _38  and  _39
REMARK   17  A    between atoms: _38  and  _41
REMARK   18  A    between atoms: _41  and  _42
REMARK   19  A    between atoms: _45  and  _47
REMARK   20  A    between atoms: _47  and  _48
REMARK   21  A    between atoms: _47  and  _50
REMARK   22  A    between atoms: _50  and  _51
REMARK   23  A    between atoms: _54  and  _56
REMARK   24  A    between atoms: _56  and  _57
REMARK   25  A    between atoms: _59  and  _61
REMARK   26  A    between atoms: _61  and  _62
REMARK   27  A    between atoms: _65  and  _67
REMARK   28  A    between atoms: _67  and  _68
REMARK   29  A    between atoms: _67  and  _70
REMARK   30  A    between atoms: _70  and  _71
REMARK   31  A    between atoms: _74  and  _76
REMARK   32  A    between atoms: _76  and  _77
REMARK   33  A    between atoms: _76  and  _79
REMARK   34  A    between atoms: _79  and  _80
REMARK   35  A    between atoms: _83  and  _85
REMARK   36  A    between atoms: _85  and  _86
REMARK   37  A    between atoms: _85  and  _88
REMARK   38  A    between atoms: _88  and  _89
REMARK   39  A    between atoms: _92  and  _94
REMARK   40  A    between atoms: _94  and  _95
REMARK   41  A    between atoms: _94  and  _97
REMARK   42  A    between atoms: _100  and  _102
REMARK   43  A    between atoms: _102  and  _103
REMARK   44  A    between atoms: _102  and  _105
REMARK   45  A    between atoms: _105  and  _106
REMARK   46  A    between atoms: _106  and  _107
REMARK   47  A    between atoms: _107  and  _108
REMARK   48  A    between atoms: _108  and  _109
REMARK   49  A    between atoms: _113  and  _115
REMARK   50  A    between atoms: _115  and  _116
REMARK   51  A    between atoms: _115  and  _118
REMARK   52  A    between atoms: _118  and  _119
REMARK   53  A    between atoms: _119  and  _120
REMARK   54  A    between atoms: _122  and  _124
REMARK   55  A    between atoms: _124  and  _125
REMARK   56  A    between atoms: _124  and  _127
REMARK   57  A    between atoms: _127  and  _128
REMARK   58  A    between atoms: _131  and  _133
REMARK   59  A    between atoms: _133  and  _134
REMARK   60  A    between atoms: _136  and  _138
REMARK   61  A    between atoms: _138  and  _139
REMARK   62  A    between atoms: _141  and  _143
REMARK   63  A    between atoms: _143  and  _144
REMARK   64  A    between atoms: _143  and  _146
REMARK   65  A    between atoms: _146  and  _147
REMARK   66  A    between atoms: _150  and  _152
REMARK   67  A    between atoms: _152  and  _153
REMARK   68  A    between atoms: _155  and  _157
REMARK   69  A    between atoms: _157  and  _158
REMARK   70  A    between atoms: _160  and  _162
REMARK   71  A    between atoms: _162  and  _163
REMARK   72  A    between atoms: _162  and  _165
REMARK   73  A    between atoms: _165  and  _166
REMARK   74  A    between atoms: _172  and  _174
REMARK   75  A    between atoms: _174  and  _175
REMARK   76  A    between atoms: _174  and  _177
REMARK   77  A    between atoms: _177  and  _178
REMARK   78  A    between atoms: _181  and  _183
REMARK   79  A    between atoms: _183  and  _184
REMARK   80  A    between atoms: _183  and  _186
REMARK   81  A    between atoms: _189  and  _191
REMARK   82  A    between atoms: _191  and  _192
REMARK   83  A    between atoms: _191  and  _194
REMARK   84  A    between atoms: _194  and  _195
REMARK   85  A    between atoms: _198  and  _200
REMARK   86  A    between atoms: _200  and  _201
REMARK   87  A    between atoms: _200  and  _203
REMARK   88  A    between atoms: _203  and  _204
REMARK   89  A    between atoms: _208  and  _209
REMARK   90  A    between atoms: _214  and  _216
REMARK   91  A    between atoms: _216  and  _217
REMARK   92  A    between atoms: _216  and  _219
REMARK   93  A    between atoms: _219  and  _220
REMARK   94  A    between atoms: _223  and  _225
REMARK   95  A    between atoms: _225  and  _226
REMARK   96  A    between atoms: _225  and  _228
REMARK   97  A    between atoms: _228  and  _229
REMARK   98  A    between atoms: _234  and  _236
REMARK   99  A    between atoms: _236  and  _237
REMARK  100  A    between atoms: _236  and  _239
REMARK  101  A    between atoms: _242  and  _244
REMARK  102  A    between atoms: _244  and  _245
REMARK  103  A    between atoms: _244  and  _247
REMARK  104  A    between atoms: _247  and  _248
REMARK  105  A    between atoms: _251  and  _253
REMARK  106  A    between atoms: _253  and  _254
REMARK  107  A    between atoms: _256  and  _258
REMARK  108  A    between atoms: _258  and  _259
REMARK  109  A    between atoms: _258  and  _261
REMARK  110  A    between atoms: _261  and  _262
REMARK  111  A    between atoms: _262  and  _263
REMARK  112  A    between atoms: _263  and  _264
REMARK  113  A    between atoms: _273  and  _275
REMARK  114  A    between atoms: _275  and  _276
REMARK  115  A    between atoms: _275  and  _278
REMARK  116  A    between atoms: _278  and  _279
REMARK  117  A    between atoms: _284  and  _286
REMARK  118  A    between atoms: _286  and  _287
REMARK  119  A    between atoms: _286  and  _289
REMARK  120  A    between atoms: _289  and  _290
REMARK  121  A    between atoms: _290  and  _291
REMARK  122  A    between atoms: _291  and  _292
REMARK  123  A    between atoms: _301  and  _303
REMARK  124  A    between atoms: _303  and  _304
REMARK  125  A    between atoms: _303  and  _306
REMARK  126  A    between atoms: _306  and  _307
REMARK  127  A    between atoms: _310  and  _312
REMARK  128  A    between atoms: _312  and  _313
REMARK  129  A    between atoms: _316  and  _318
REMARK  130  A    between atoms: _318  and  _319
REMARK  131  A    between atoms: _318  and  _321
REMARK  132  A    between atoms: _321  and  _322
REMARK  133  A    between atoms: _325  and  _327
REMARK  134  A    between atoms: _327  and  _328
REMARK  135  A    between atoms: _327  and  _330
REMARK  136  A    between atoms: _330  and  _331
REMARK  137  A    between atoms: _334  and  _336
REMARK  138  A    between atoms: _336  and  _337
REMARK  139  A    between atoms: _336  and  _339
REMARK  140  A    between atoms: _339  and  _340
REMARK  141  A    between atoms: _343  and  _345
REMARK  142  A    between atoms: _345  and  _346
REMARK  143  A    between atoms: _345  and  _348
REMARK  144  A    between atoms: _348  and  _349
REMARK  145  A    between atoms: _352  and  _354
REMARK  146  A    between atoms: _354  and  _355
REMARK  147  A    between atoms: _357  and  _359
REMARK  148  A    between atoms: _359  and  _360
REMARK  149  A    between atoms: _363  and  _365
REMARK  150  A    between atoms: _365  and  _366
REMARK  151  A    between atoms: _365  and  _368
REMARK  152  A    between atoms: _368  and  _369
REMARK  153  A    between atoms: _372  and  _374
REMARK  154  A    between atoms: _374  and  _375
REMARK  155  A    between atoms: _374  and  _377
REMARK  156  A    between atoms: _377  and  _378
REMARK  157  A    between atoms: _381  and  _383
REMARK  158  A    between atoms: _383  and  _384
REMARK  159  A    between atoms: _383  and  _386
REMARK  160  A    between atoms: _386  and  _387
REMARK  161  A    between atoms: _390  and  _392
REMARK  162  A    between atoms: _392  and  _393
REMARK  163  A    between atoms: _392  and  _395
REMARK  164  A    between atoms: _398  and  _400
REMARK  165  A    between atoms: _400  and  _401
REMARK  166  A    between atoms: _400  and  _403
REMARK  167  A    between atoms: _403  and  _404
REMARK  168  A    between atoms: _404  and  _405
REMARK  169  A    between atoms: _408  and  _410
REMARK  170  A    between atoms: _410  and  _411
REMARK  171  A    between atoms: _410  and  _413
REMARK  172  A    between atoms: _413  and  _414
REMARK  173  A    between atoms: _414  and  _415
REMARK  174  A    between atoms: _415  and  _416
REMARK  175  A    between atoms: _416  and  _417
REMARK  176  A    between atoms: _421  and  _423
REMARK  177  A    between atoms: _423  and  _424
REMARK  178  A    between atoms: _423  and  _426
REMARK  179  A    between atoms: _426  and  _427
REMARK  180  A    between atoms: _427  and  _428
REMARK  181  A    between atoms: _430  and  _432
REMARK  182  A    between atoms: _432  and  _433
REMARK  183  A    between atoms: _432  and  _435
REMARK  184  A    between atoms: _435  and  _436
REMARK  185  A    between atoms: _439  and  _441
REMARK  186  A    between atoms: _441  and  _442
REMARK  187  A    between atoms: _444  and  _446
REMARK  188  A    between atoms: _446  and  _447
REMARK  189  A    between atoms: _449  and  _451
REMARK  190  A    between atoms: _451  and  _452
REMARK  191  A    between atoms: _451  and  _454
REMARK  192  A    between atoms: _454  and  _455
REMARK  193  A    between atoms: _458  and  _460
REMARK  194  A    between atoms: _460  and  _461
REMARK  195  A    between atoms: _463  and  _465
REMARK  196  A    between atoms: _465  and  _466
REMARK  197  A    between atoms: _468  and  _470
REMARK  198  A    between atoms: _470  and  _471
REMARK  199  A    between atoms: _470  and  _473
REMARK  200  A    between atoms: _473  and  _474
REMARK  201  A    between atoms: _480  and  _482
REMARK  202  A    between atoms: _482  and  _483
REMARK  203  A    between atoms: _482  and  _485
REMARK  204  A    between atoms: _485  and  _486
REMARK  205  A    between atoms: _489  and  _491
REMARK  206  A    between atoms: _491  and  _492
REMARK  207  A    between atoms: _491  and  _494
REMARK  208  A    between atoms: _497  and  _499
REMARK  209  A    between atoms: _499  and  _500
REMARK  210  A    between atoms: _499  and  _502
REMARK  211  A    between atoms: _502  and  _503
REMARK  212  A    between atoms: _506  and  _508
REMARK  213  A    between atoms: _508  and  _509
REMARK  214  A    between atoms: _508  and  _511
REMARK  215  A    between atoms: _511  and  _512
REMARK  216  A    between atoms: _516  and  _517
REMARK  217  A    between atoms: _522  and  _524
REMARK  218  A    between atoms: _524  and  _525
REMARK  219  A    between atoms: _524  and  _527
REMARK  220  A    between atoms: _527  and  _528
REMARK  221  A    between atoms: _531  and  _533
REMARK  222  A    between atoms: _533  and  _534
REMARK  223  A    between atoms: _533  and  _536
REMARK  224  A    between atoms: _536  and  _537
REMARK  225  A    between atoms: _542  and  _544
REMARK  226  A    between atoms: _544  and  _545
REMARK  227  A    between atoms: _544  and  _547
REMARK  228  A    between atoms: _550  and  _552
REMARK  229  A    between atoms: _552  and  _553
REMARK  230  A    between atoms: _552  and  _555
REMARK  231  A    between atoms: _555  and  _556
REMARK  232  A    between atoms: _559  and  _561
REMARK  233  A    between atoms: _561  and  _562
REMARK  234  A    between atoms: _564  and  _566
REMARK  235  A    between atoms: _566  and  _567
REMARK  236  A    between atoms: _566  and  _569
REMARK  237  A    between atoms: _569  and  _570
REMARK  238  A    between atoms: _570  and  _571
REMARK  239  A    between atoms: _571  and  _572
REMARK                            x       y       z     vdW  Elec       q    Type
REMARK                         _______ _______ _______ _____ _____    ______ ____
ROOT
ATOM      1  O   HOH     1      11.679  20.870   6.482  0.00  0.00    +0.000 OA
ENDROOT
TORSDOF 0
REMARK  Name = ../refined-set-2016/4a6b/4a6b_pocket.pdb
REMARK  239 active torsions:
REMARK  status: ('A' for Active; 'I' for Inactive)
REMARK    1  A    between atoms: _1  and  _3
REMARK    2  A    between atoms: _3  and  _4
REMARK    3  A    between atoms: _3  and  _6
REMARK    4  A    between atoms: _6  and  _7
REMARK    5  A    between atoms: _7  and  _8
REMARK    6  A    between atoms: _8  and  _9
REMARK    7  A    between atoms: _18  and  _20
REMARK    8  A    between atoms: _20  and  _21
REMARK    9  A    between atoms: _20  and  _23
REMARK   10  A    between atoms: _23  and  _24
REMARK   11  A    between atoms: _27  and  _29
REMARK   12  A    between atoms: _29  and  _30
REMARK   13  A    between atoms: _29  and  _32
REMARK   14  A    between atoms: _32  and  _33
REMARK   15  A    between atoms: _36  and  _38
REMARK   16  A    between atoms: _38  and  _39
REMARK   17  A    between atoms: _38  and  _41
REMARK   18  A    between atoms: _41  and  _42
REMARK   19  A    between atoms: _45  and  _47
REMARK   20  A    between atoms: _47  and  _48
REMARK   21  A    between atoms: _47  and  _50
REMARK   22  A    between atoms: _50  and  _51
REMARK   23  A    between atoms: _54  and  _56
REMARK   24  A    between atoms: _56  and  _57
REMARK   25  A    between atoms: _59  and  _61
REMARK   26  A    between atoms: _61  and  _62
REMARK   27  A    between atoms: _65  and  _67
REMARK   28  A    between atoms: _67  and  _68
REMARK   29  A    between atoms: _67  and  _70
REMARK   30  A    between atoms: _70  and  _71
REMARK   31  A    between atoms: _74  and  _76
REMARK   32  A    between atoms: _76  and  _77
REMARK   33  A    between atoms: _76  and  _79
REMARK   34  A    between atoms: _79  and  _80
REMARK   35  A    between atoms: _83  and  _85
REMARK   36  A    between atoms: _85  and  _86
REMARK   37  A    between atoms: _85  and  _88
REMARK   38  A    between atoms: _88  and  _89
REMARK   39  A    between atoms: _92  and  _94
REMARK   40  A    between atoms: _94  and  _95
REMARK   41  A    between atoms: _94  and  _97
REMARK   42  A    between atoms: _100  and  _102
REMARK   43  A    between atoms: _102  and  _103
REMARK   44  A    between atoms: _102  and  _105
REMARK   45  A    between atoms: _105  and  _106
REMARK   46  A    between atoms: _106  and  _107
REMARK   47  A    between atoms: _107  and  _108
REMARK   48  A    between atoms: _108  and  _109
REMARK   49  A    between atoms: _113  and  _115
REMARK   50  A    between atoms: _115  and  _116
REMARK   51  A    between atoms: _115  and  _118
REMARK   52  A    between atoms: _118  and  _119
REMARK   53  A    between atoms: _119  and  _120
REMARK   54  A    between atoms: _122  and  _124
REMARK   55  A    between atoms: _124  and  _125
REMARK   56  A    between atoms: _124  and  _127
REMARK   57  A    between atoms: _127  and  _128
REMARK   58  A    between atoms: _131  and  _133
REMARK   59  A    between atoms: _133  and  _134
REMARK   60  A    between atoms: _136  and  _138
REMARK   61  A    between atoms: _138  and  _139
REMARK   62  A    between atoms: _141  and  _143
REMARK   63  A    between atoms: _143  and  _144
REMARK   64  A    between atoms: _143  and  _146
REMARK   65  A    between atoms: _146  and  _147
REMARK   66  A    between atoms: _150  and  _152
REMARK   67  A    between atoms: _152  and  _153
REMARK   68  A    between atoms: _155  and  _157
REMARK   69  A    between atoms: _157  and  _158
REMARK   70  A    between atoms: _160  and  _162
REMARK   71  A    between atoms: _162  and  _163
REMARK   72  A    between atoms: _162  and  _165
REMARK   73  A    between atoms: _165  and  _166
REMARK   74  A    between atoms: _172  and  _174
REMARK   75  A    between atoms: _174  and  _175
REMARK   76  A    between atoms: _174  and  _177
REMARK   77  A    between atoms: _177  and  _178
REMARK   78  A    between atoms: _181  and  _183
REMARK   79  A    between atoms: _183  and  _184
REMARK   80  A    between atoms: _183  and  _186
REMARK   81  A    between atoms: _189  and  _191
REMARK   82  A    between atoms: _191  and  _192
REMARK   83  A    between atoms: _191  and  _194
REMARK   84  A    between atoms: _194  and  _195
REMARK   85  A    between atoms: _198  and  _200
REMARK   86  A    between atoms: _200  and  _201
REMARK   87  A    between atoms: _200  and  _203
REMARK   88  A    between atoms: _203  and  _204
REMARK   89  A    between atoms: _208  and  _209
REMARK   90  A    between atoms: _214  and  _216
REMARK   91  A    between atoms: _216  and  _217
REMARK   92  A    between atoms: _216  and  _219
REMARK   93  A    between atoms: _219  and  _220
REMARK   94  A    between atoms: _223  and  _225
REMARK   95  A    between atoms: _225  and  _226
REMARK   96  A    between atoms: _225  and  _228
REMARK   97  A    between atoms: _228  and  _229
REMARK   98  A    between atoms: _234  and  _236
REMARK   99  A    between atoms: _236  and  _237
REMARK  100  A    between atoms: _236  and  _239
REMARK  101  A    between atoms: _242  and  _244
REMARK  102  A    between atoms: _244  and  _245
REMARK  103  A    between atoms: _244  and  _247
REMARK  104  A    between atoms: _247  and  _248
REMARK  105  A    between atoms: _251  and  _253
REMARK  106  A    between atoms: _253  and  _254
REMARK  107  A    between atoms: _256  and  _258
REMARK  108  A    between atoms: _258  and  _259
REMARK  109  A    between atoms: _258  and  _261
REMARK  110  A    between atoms: _261  and  _262
REMARK  111  A    between atoms: _262  and  _263
REMARK  112  A    between atoms: _263  and  _264
REMARK  113  A    between atoms: _273  and  _275
REMARK  114  A    between atoms: _275  and  _276
REMARK  115  A    between atoms: _275  and  _278
REMARK  116  A    between atoms: _278  and  _279
REMARK  117  A    between atoms: _284  and  _286
REMARK  118  A    between atoms: _286  and  _287
REMARK  119  A    between atoms: _286  and  _289
REMARK  120  A    between atoms: _289  and  _290
REMARK  121  A    between atoms: _290  and  _291
REMARK  122  A    between atoms: _291  and  _292
REMARK  123  A    between atoms: _301  and  _303
REMARK  124  A    between atoms: _303  and  _304
REMARK  125  A    between atoms: _303  and  _306
REMARK  126  A    between atoms: _306  and  _307
REMARK  127  A    between atoms: _310  and  _312
REMARK  128  A    between atoms: _312  and  _313
REMARK  129  A    between atoms: _316  and  _318
REMARK  130  A    between atoms: _318  and  _319
REMARK  131  A    between atoms: _318  and  _321
REMARK  132  A    between atoms: _321  and  _322
REMARK  133  A    between atoms: _325  and  _327
REMARK  134  A    between atoms: _327  and  _328
REMARK  135  A    between atoms: _327  and  _330
REMARK  136  A    between atoms: _330  and  _331
REMARK  137  A    between atoms: _334  and  _336
REMARK  138  A    between atoms: _336  and  _337
REMARK  139  A    between atoms: _336  and  _339
REMARK  140  A    between atoms: _339  and  _340
REMARK  141  A    between atoms: _343  and  _345
REMARK  142  A    between atoms: _345  and  _346
REMARK  143  A    between atoms: _345  and  _348
REMARK  144  A    between atoms: _348  and  _349
REMARK  145  A    between atoms: _352  and  _354
REMARK  146  A    between atoms: _354  and  _355
REMARK  147  A    between atoms: _357  and  _359
REMARK  148  A    between atoms: _359  and  _360
REMARK  149  A    between atoms: _363  and  _365
REMARK  150  A    between atoms: _365  and  _366
REMARK  151  A    between atoms: _365  and  _368
REMARK  152  A    between atoms: _368  and  _369
REMARK  153  A    between atoms: _372  and  _374
REMARK  154  A    between atoms: _374  and  _375
REMARK  155  A    between atoms: _374  and  _377
REMARK  156  A    between atoms: _377  and  _378
REMARK  157  A    between atoms: _381  and  _383
REMARK  158  A    between atoms: _383  and  _384
REMARK  159  A    between atoms: _383  and  _386
REMARK  160  A    between atoms: _386  and  _387
REMARK  161  A    between atoms: _390  and  _392
REMARK  162  A    between atoms: _392  and  _393
REMARK  163  A    between atoms: _392  and  _395
REMARK  164  A    between atoms: _398  and  _400
REMARK  165  A    between atoms: _400  and  _401
REMARK  166  A    between atoms: _400  and  _403
REMARK  167  A    between atoms: _403  and  _404
REMARK  168  A    between atoms: _404  and  _405
REMARK  169  A    between atoms: _408  and  _410
REMARK  170  A    between atoms: _410  and  _411
REMARK  171  A    between atoms: _410  and  _413
REMARK  172  A    between atoms: _413  and  _414
REMARK  173  A    between atoms: _414  and  _415
REMARK  174  A    between atoms: _415  and  _416
REMARK  175  A    between atoms: _416  and  _417
REMARK  176  A    between atoms: _421  and  _423
REMARK  177  A    between atoms: _423  and  _424
REMARK  178  A    between atoms: _423  and  _426
REMARK  179  A    between atoms: _426  and  _427
REMARK  180  A    between atoms: _427  and  _428
REMARK  181  A    between atoms: _430  and  _432
REMARK  182  A    between atoms: _432  and  _433
REMARK  183  A    between atoms: _432  and  _435
REMARK  184  A    between atoms: _435  and  _436
REMARK  185  A    between atoms: _439  and  _441
REMARK  186  A    between atoms: _441  and  _442
REMARK  187  A    between atoms: _444  and  _446
REMARK  188  A    between atoms: _446  and  _447
REMARK  189  A    between atoms: _449  and  _451
REMARK  190  A    between atoms: _451  and  _452
REMARK  191  A    between atoms: _451  and  _454
REMARK  192  A    between atoms: _454  and  _455
REMARK  193  A    between atoms: _458  and  _460
REMARK  194  A    between atoms: _460  and  _461
REMARK  195  A    between atoms: _463  and  _465
REMARK  196  A    between atoms: _465  and  _466
REMARK  197  A    between atoms: _468  and  _470
REMARK  198  A    between atoms: _470  and  _471
REMARK  199  A    between atoms: _470  and  _473
REMARK  200  A    between atoms: _473  and  _474
REMARK  201  A    between atoms: _480  and  _482
REMARK  202  A    between atoms: _482  and  _483
REMARK  203  A    between atoms: _482  and  _485
REMARK  204  A    between atoms: _485  and  _486
REMARK  205  A    between atoms: _489  and  _491
REMARK  206  A    between atoms: _491  and  _492
REMARK  207  A    between atoms: _491  and  _494
REMARK  208  A    between atoms: _497  and  _499
REMARK  209  A    between atoms: _499  and  _500
REMARK  210  A    between atoms: _499  and  _502
REMARK  211  A    between atoms: _502  and  _503
REMARK  212  A    between atoms: _506  and  _508
REMARK  213  A    between atoms: _508  and  _509
REMARK  214  A    between atoms: _508  and  _511
REMARK  215  A    between atoms: _511  and  _512
REMARK  216  A    between atoms: _516  and  _517
REMARK  217  A    between atoms: _522  and  _524
REMARK  218  A    between atoms: _524  and  _525
REMARK  219  A    between atoms: _524  and  _527
REMARK  220  A    between atoms: _527  and  _528
REMARK  221  A    between atoms: _531  and  _533
REMARK  222  A    between atoms: _533  and  _534
REMARK  223  A    between atoms: _533  and  _536
REMARK  224  A    between atoms: _536  and  _537
REMARK  225  A    between atoms: _542  and  _544
REMARK  226  A    between atoms: _544  and  _545
REMARK  227  A    between atoms: _544  and  _547
REMARK  228  A    between atoms: _550  and  _552
REMARK  229  A    between atoms: _552  and  _553
REMARK  230  A    between atoms: _552  and  _555
REMARK  231  A    between atoms: _555  and  _556
REMARK  232  A    between atoms: _559  and  _561
REMARK  233  A    between atoms: _561  and  _562
REMARK  234  A    between atoms: _564  and  _566
REMARK  235  A    between atoms: _566  and  _567
REMARK  236  A    between atoms: _566  and  _569
REMARK  237  A    between atoms: _569  and  _570
REMARK  238  A    between atoms: _570  and  _571
REMARK  239  A    between atoms: _571  and  _572
REMARK                            x       y       z     vdW  Elec       q    Type
REMARK                         _______ _______ _______ _____ _____    ______ ____
ROOT
ATOM      1  O   HOH     1      19.742  24.330  16.049  0.00  0.00    +0.000 OA
ENDROOT
TORSDOF 0
REMARK  Name = ../refined-set-2016/4a6b/4a6b_pocket.pdb
REMARK  239 active torsions:
REMARK  status: ('A' for Active; 'I' for Inactive)
REMARK    1  A    between atoms: _1  and  _3
REMARK    2  A    between atoms: _3  and  _4
REMARK    3  A    between atoms: _3  and  _6
REMARK    4  A    between atoms: _6  and  _7
REMARK    5  A    between atoms: _7  and  _8
REMARK    6  A    between atoms: _8  and  _9
REMARK    7  A    between atoms: _18  and  _20
REMARK    8  A    between atoms: _20  and  _21
REMARK    9  A    between atoms: _20  and  _23
REMARK   10  A    between atoms: _23  and  _24
REMARK   11  A    between atoms: _27  and  _29
REMARK   12  A    between atoms: _29  and  _30
REMARK   13  A    between atoms: _29  and  _32
REMARK   14  A    between atoms: _32  and  _33
REMARK   15  A    between atoms: _36  and  _38
REMARK   16  A    between atoms: _38  and  _39
REMARK   17  A    between atoms: _38  and  _41
REMARK   18  A    between atoms: _41  and  _42
REMARK   19  A    between atoms: _45  and  _47
REMARK   20  A    between atoms: _47  and  _48
REMARK   21  A    between atoms: _47  and  _50
REMARK   22  A    between atoms: _50  and  _51
REMARK   23  A    between atoms: _54  and  _56
REMARK   24  A    between atoms: _56  and  _57
REMARK   25  A    between atoms: _59  and  _61
REMARK   26  A    between atoms: _61  and  _62
REMARK   27  A    between atoms: _65  and  _67
REMARK   28  A    between atoms: _67  and  _68
REMARK   29  A    between atoms: _67  and  _70
REMARK   30  A    between atoms: _70  and  _71
REMARK   31  A    between atoms: _74  and  _76
REMARK   32  A    between atoms: _76  and  _77
REMARK   33  A    between atoms: _76  and  _79
REMARK   34  A    between atoms: _79  and  _80
REMARK   35  A    between atoms: _83  and  _85
REMARK   36  A    between atoms: _85  and  _86
REMARK   37  A    between atoms: _85  and  _88
REMARK   38  A    between atoms: _88  and  _89
REMARK   39  A    between atoms: _92  and  _94
REMARK   40  A    between atoms: _94  and  _95
REMARK   41  A    between atoms: _94  and  _97
REMARK   42  A    between atoms: _100  and  _102
REMARK   43  A    between atoms: _102  and  _103
REMARK   44  A    between atoms: _102  and  _105
REMARK   45  A    between atoms: _105  and  _106
REMARK   46  A    between atoms: _106  and  _107
REMARK   47  A    between atoms: _107  and  _108
REMARK   48  A    between atoms: _108  and  _109
REMARK   49  A    between atoms: _113  and  _115
REMARK   50  A    between atoms: _115  and  _116
REMARK   51  A    between atoms: _115  and  _118
REMARK   52  A    between atoms: _118  and  _119
REMARK   53  A    between atoms: _119  and  _120
REMARK   54  A    between atoms: _122  and  _124
REMARK   55  A    between atoms: _124  and  _125
REMARK   56  A    between atoms: _124  and  _127
REMARK   57  A    between atoms: _127  and  _128
REMARK   58  A    between atoms: _131  and  _133
REMARK   59  A    between atoms: _133  and  _134
REMARK   60  A    between atoms: _136  and  _138
REMARK   61  A    between atoms: _138  and  _139
REMARK   62  A    between atoms: _141  and  _143
REMARK   63  A    between atoms: _143  and  _144
REMARK   64  A    between atoms: _143  and  _146
REMARK   65  A    between atoms: _146  and  _147
REMARK   66  A    between atoms: _150  and  _152
REMARK   67  A    between atoms: _152  and  _153
REMARK   68  A    between atoms: _155  and  _157
REMARK   69  A    between atoms: _157  and  _158
REMARK   70  A    between atoms: _160  and  _162
REMARK   71  A    between atoms: _162  and  _163
REMARK   72  A    between atoms: _162  and  _165
REMARK   73  A    between atoms: _165  and  _166
REMARK   74  A    between atoms: _172  and  _174
REMARK   75  A    between atoms: _174  and  _175
REMARK   76  A    between atoms: _174  and  _177
REMARK   77  A    between atoms: _177  and  _178
REMARK   78  A    between atoms: _181  and  _183
REMARK   79  A    between atoms: _183  and  _184
REMARK   80  A    between atoms: _183  and  _186
REMARK   81  A    between atoms: _189  and  _191
REMARK   82  A    between atoms: _191  and  _192
REMARK   83  A    between atoms: _191  and  _194
REMARK   84  A    between atoms: _194  and  _195
REMARK   85  A    between atoms: _198  and  _200
REMARK   86  A    between atoms: _200  and  _201
REMARK   87  A    between atoms: _200  and  _203
REMARK   88  A    between atoms: _203  and  _204
REMARK   89  A    between atoms: _208  and  _209
REMARK   90  A    between atoms: _214  and  _216
REMARK   91  A    between atoms: _216  and  _217
REMARK   92  A    between atoms: _216  and  _219
REMARK   93  A    between atoms: _219  and  _220
REMARK   94  A    between atoms: _223  and  _225
REMARK   95  A    between atoms: _225  and  _226
REMARK   96  A    between atoms: _225  and  _228
REMARK   97  A    between atoms: _228  and  _229
REMARK   98  A    between atoms: _234  and  _236
REMARK   99  A    between atoms: _236  and  _237
REMARK  100  A    between atoms: _236  and  _239
REMARK  101  A    between atoms: _242  and  _244
REMARK  102  A    between atoms: _244  and  _245
REMARK  103  A    between atoms: _244  and  _247
REMARK  104  A    between atoms: _247  and  _248
REMARK  105  A    between atoms: _251  and  _253
REMARK  106  A    between atoms: _253  and  _254
REMARK  107  A    between atoms: _256  and  _258
REMARK  108  A    between atoms: _258  and  _259
REMARK  109  A    between atoms: _258  and  _261
REMARK  110  A    between atoms: _261  and  _262
REMARK  111  A    between atoms: _262  and  _263
REMARK  112  A    between atoms: _263  and  _264
REMARK  113  A    between atoms: _273  and  _275
REMARK  114  A    between atoms: _275  and  _276
REMARK  115  A    between atoms: _275  and  _278
REMARK  116  A    between atoms: _278  and  _279
REMARK  117  A    between atoms: _284  and  _286
REMARK  118  A    between atoms: _286  and  _287
REMARK  119  A    between atoms: _286  and  _289
REMARK  120  A    between atoms: _289  and  _290
REMARK  121  A    between atoms: _290  and  _291
REMARK  122  A    between atoms: _291  and  _292
REMARK  123  A    between atoms: _301  and  _303
REMARK  124  A    between atoms: _303  and  _304
REMARK  125  A    between atoms: _303  and  _306
REMARK  126  A    between atoms: _306  and  _307
REMARK  127  A    between atoms: _310  and  _312
REMARK  128  A    between atoms: _312  and  _313
REMARK  129  A    between atoms: _316  and  _318
REMARK  130  A    between atoms: _318  and  _319
REMARK  131  A    between atoms: _318  and  _321
REMARK  132  A    between atoms: _321  and  _322
REMARK  133  A    between atoms: _325  and  _327
REMARK  134  A    between atoms: _327  and  _328
REMARK  135  A    between atoms: _327  and  _330
REMARK  136  A    between atoms: _330  and  _331
REMARK  137  A    between atoms: _334  and  _336
REMARK  138  A    between atoms: _336  and  _337
REMARK  139  A    between atoms: _336  and  _339
REMARK  140  A    between atoms: _339  and  _340
REMARK  141  A    between atoms: _343  and  _345
REMARK  142  A    between atoms: _345  and  _346
REMARK  143  A    between atoms: _345  and  _348
REMARK  144  A    between atoms: _348  and  _349
REMARK  145  A    between atoms: _352  and  _354
REMARK  146  A    between atoms: _354  and  _355
REMARK  147  A    between atoms: _357  and  _359
REMARK  148  A    between atoms: _359  and  _360
REMARK  149  A    between atoms: _363  and  _365
REMARK  150  A    between atoms: _365  and  _366
REMARK  151  A    between atoms: _365  and  _368
REMARK  152  A    between atoms: _368  and  _369
REMARK  153  A    between atoms: _372  and  _374
REMARK  154  A    between atoms: _374  and  _375
REMARK  155  A    between atoms: _374  and  _377
REMARK  156  A    between atoms: _377  and  _378
REMARK  157  A    between atoms: _381  and  _383
REMARK  158  A    between atoms: _383  and  _384
REMARK  159  A    between atoms: _383  and  _386
REMARK  160  A    between atoms: _386  and  _387
REMARK  161  A    between atoms: _390  and  _392
REMARK  162  A    between atoms: _392  and  _393
REMARK  163  A    between atoms: _392  and  _395
REMARK  164  A    between atoms: _398  and  _400
REMARK  165  A    between atoms: _400  and  _401
REMARK  166  A    between atoms: _400  and  _403
REMARK  167  A    between atoms: _403  and  _404
REMARK  168  A    between atoms: _404  and  _405
REMARK  169  A    between atoms: _408  and  _410
REMARK  170  A    between atoms: _410  and  _411
REMARK  171  A    between atoms: _410  and  _413
REMARK  172  A    between atoms: _413  and  _414
REMARK  173  A    between atoms: _414  and  _415
REMARK  174  A    between atoms: _415  and  _416
REMARK  175  A    between atoms: _416  and  _417
REMARK  176  A    between atoms: _421  and  _423
REMARK  177  A    between atoms: _423  and  _424
REMARK  178  A    between atoms: _423  and  _426
REMARK  179  A    between atoms: _426  and  _427
REMARK  180  A    between atoms: _427  and  _428
REMARK  181  A    between atoms: _430  and  _432
REMARK  182  A    between atoms: _432  and  _433
REMARK  183  A    between atoms: _432  and  _435
REMARK  184  A    between atoms: _435  and  _436
REMARK  185  A    between atoms: _439  and  _441
REMARK  186  A    between atoms: _441  and  _442
REMARK  187  A    between atoms: _444  and  _446
REMARK  188  A    between atoms: _446  and  _447
REMARK  189  A    between atoms: _449  and  _451
REMARK  190  A    between atoms: _451  and  _452
REMARK  191  A    between atoms: _451  and  _454
REMARK  192  A    between atoms: _454  and  _455
REMARK  193  A    between atoms: _458  and  _460
REMARK  194  A    between atoms: _460  and  _461
REMARK  195  A    between atoms: _463  and  _465
REMARK  196  A    between atoms: _465  and  _466
REMARK  197  A    between atoms: _468  and  _470
REMARK  198  A    between atoms: _470  and  _471
REMARK  199  A    between atoms: _470  and  _473
REMARK  200  A    between atoms: _473  and  _474
REMARK  201  A    between atoms: _480  and  _482
REMARK  202  A    between atoms: _482  and  _483
REMARK  203  A    between atoms: _482  and  _485
REMARK  204  A    between atoms: _485  and  _486
REMARK  205  A    between atoms: _489  and  _491
REMARK  206  A    between atoms: _491  and  _492
REMARK  207  A    between atoms: _491  and  _494
REMARK  208  A    between atoms: _497  and  _499
REMARK  209  A    between atoms: _499  and  _500
REMARK  210  A    between atoms: _499  and  _502
REMARK  211  A    between atoms: _502  and  _503
REMARK  212  A    between atoms: _506  and  _508
REMARK  213  A    between atoms: _508  and  _509
REMARK  214  A    between atoms: _508  and  _511
REMARK  215  A    between atoms: _511  and  _512
REMARK  216  A    between atoms: _516  and  _517
REMARK  217  A    between atoms: _522  and  _524
REMARK  218  A    between atoms: _524  and  _525
REMARK  219  A    between atoms: _524  and  _527
REMARK  220  A    between atoms: _527  and  _528
REMARK  221  A    between atoms: _531  and  _533
REMARK  222  A    between atoms: _533  and  _534
REMARK  223  A    between atoms: _533  and  _536
REMARK  224  A    between atoms: _536  and  _537
REMARK  225  A    between atoms: _542  and  _544
REMARK  226  A    between atoms: _544  and  _545
REMARK  227  A    between atoms: _544  and  _547
REMARK  228  A    between atoms: _550  and  _552
REMARK  229  A    between atoms: _552  and  _553
REMARK  230  A    between atoms: _552  and  _555
REMARK  231  A    between atoms: _555  and  _556
REMARK  232  A    between atoms: _559  and  _561
REMARK  233  A    between atoms: _561  and  _562
REMARK  234  A    between atoms: _564  and  _566
REMARK  235  A    between atoms: _566  and  _567
REMARK  236  A    between atoms: _566  and  _569
REMARK  237  A    between atoms: _569  and  _570
REMARK  238  A    between atoms: _570  and  _571
REMARK  239  A    between atoms: _571  and  _572
REMARK                            x       y       z     vdW  Elec       q    Type
REMARK                         _______ _______ _______ _____ _____    ______ ____
ROOT
ATOM      1  O   HOH     1      21.962  23.430  11.209  0.00  0.00    +0.000 OA
ENDROOT
TORSDOF 0
REMARK  Name = ../refined-set-2016/4a6b/4a6b_pocket.pdb
REMARK  239 active torsions:
REMARK  status: ('A' for Active; 'I' for Inactive)
REMARK    1  A    between atoms: _1  and  _3
REMARK    2  A    between atoms: _3  and  _4
REMARK    3  A    between atoms: _3  and  _6
REMARK    4  A    between atoms: _6  and  _7
REMARK    5  A    between atoms: _7  and  _8
REMARK    6  A    between atoms: _8  and  _9
REMARK    7  A    between atoms: _18  and  _20
REMARK    8  A    between atoms: _20  and  _21
REMARK    9  A    between atoms: _20  and  _23
REMARK   10  A    between atoms: _23  and  _24
REMARK   11  A    between atoms: _27  and  _29
REMARK   12  A    between atoms: _29  and  _30
REMARK   13  A    between atoms: _29  and  _32
REMARK   14  A    between atoms: _32  and  _33
REMARK   15  A    between atoms: _36  and  _38
REMARK   16  A    between atoms: _38  and  _39
REMARK   17  A    between atoms: _38  and  _41
REMARK   18  A    between atoms: _41  and  _42
REMARK   19  A    between atoms: _45  and  _47
REMARK   20  A    between atoms: _47  and  _48
REMARK   21  A    between atoms: _47  and  _50
REMARK   22  A    between atoms: _50  and  _51
REMARK   23  A    between atoms: _54  and  _56
REMARK   24  A    between atoms: _56  and  _57
REMARK   25  A    between atoms: _59  and  _61
REMARK   26  A    between atoms: _61  and  _62
REMARK   27  A    between atoms: _65  and  _67
REMARK   28  A    between atoms: _67  and  _68
REMARK   29  A    between atoms: _67  and  _70
REMARK   30  A    between atoms: _70  and  _71
REMARK   31  A    between atoms: _74  and  _76
REMARK   32  A    between atoms: _76  and  _77
REMARK   33  A    between atoms: _76  and  _79
REMARK   34  A    between atoms: _79  and  _80
REMARK   35  A    between atoms: _83  and  _85
REMARK   36  A    between atoms: _85  and  _86
REMARK   37  A    between atoms: _85  and  _88
REMARK   38  A    between atoms: _88  and  _89
REMARK   39  A    between atoms: _92  and  _94
REMARK   40  A    between atoms: _94  and  _95
REMARK   41  A    between atoms: _94  and  _97
REMARK   42  A    between atoms: _100  and  _102
REMARK   43  A    between atoms: _102  and  _103
REMARK   44  A    between atoms: _102  and  _105
REMARK   45  A    between atoms: _105  and  _106
REMARK   46  A    between atoms: _106  and  _107
REMARK   47  A    between atoms: _107  and  _108
REMARK   48  A    between atoms: _108  and  _109
REMARK   49  A    between atoms: _113  and  _115
REMARK   50  A    between atoms: _115  and  _116
REMARK   51  A    between atoms: _115  and  _118
REMARK   52  A    between atoms: _118  and  _119
REMARK   53  A    between atoms: _119  and  _120
REMARK   54  A    between atoms: _122  and  _124
REMARK   55  A    between atoms: _124  and  _125
REMARK   56  A    between atoms: _124  and  _127
REMARK   57  A    between atoms: _127  and  _128
REMARK   58  A    between atoms: _131  and  _133
REMARK   59  A    between atoms: _133  and  _134
REMARK   60  A    between atoms: _136  and  _138
REMARK   61  A    between atoms: _138  and  _139
REMARK   62  A    between atoms: _141  and  _143
REMARK   63  A    between atoms: _143  and  _144
REMARK   64  A    between atoms: _143  and  _146
REMARK   65  A    between atoms: _146  and  _147
REMARK   66  A    between atoms: _150  and  _152
REMARK   67  A    between atoms: _152  and  _153
REMARK   68  A    between atoms: _155  and  _157
REMARK   69  A    between atoms: _157  and  _158
REMARK   70  A    between atoms: _160  and  _162
REMARK   71  A    between atoms: _162  and  _163
REMARK   72  A    between atoms: _162  and  _165
REMARK   73  A    between atoms: _165  and  _166
REMARK   74  A    between atoms: _172  and  _174
REMARK   75  A    between atoms: _174  and  _175
REMARK   76  A    between atoms: _174  and  _177
REMARK   77  A    between atoms: _177  and  _178
REMARK   78  A    between atoms: _181  and  _183
REMARK   79  A    between atoms: _183  and  _184
REMARK   80  A    between atoms: _183  and  _186
REMARK   81  A    between atoms: _189  and  _191
REMARK   82  A    between atoms: _191  and  _192
REMARK   83  A    between atoms: _191  and  _194
REMARK   84  A    between atoms: _194  and  _195
REMARK   85  A    between atoms: _198  and  _200
REMARK   86  A    between atoms: _200  and  _201
REMARK   87  A    between atoms: _200  and  _203
REMARK   88  A    between atoms: _203  and  _204
REMARK   89  A    between atoms: _208  and  _209
REMARK   90  A    between atoms: _214  and  _216
REMARK   91  A    between atoms: _216  and  _217
REMARK   92  A    between atoms: _216  and  _219
REMARK   93  A    between atoms: _219  and  _220
REMARK   94  A    between atoms: _223  and  _225
REMARK   95  A    between atoms: _225  and  _226
REMARK   96  A    between atoms: _225  and  _228
REMARK   97  A    between atoms: _228  and  _229
REMARK   98  A    between atoms: _234  and  _236
REMARK   99  A    between atoms: _236  and  _237
REMARK  100  A    between atoms: _236  and  _239
REMARK  101  A    between atoms: _242  and  _244
REMARK  102  A    between atoms: _244  and  _245
REMARK  103  A    between atoms: _244  and  _247
REMARK  104  A    between atoms: _247  and  _248
REMARK  105  A    between atoms: _251  and  _253
REMARK  106  A    between atoms: _253  and  _254
REMARK  107  A    between atoms: _256  and  _258
REMARK  108  A    between atoms: _258  and  _259
REMARK  109  A    between atoms: _258  and  _261
REMARK  110  A    between atoms: _261  and  _262
REMARK  111  A    between atoms: _262  and  _263
REMARK  112  A    between atoms: _263  and  _264
REMARK  113  A    between atoms: _273  and  _275
REMARK  114  A    between atoms: _275  and  _276
REMARK  115  A    between atoms: _275  and  _278
REMARK  116  A    between atoms: _278  and  _279
REMARK  117  A    between atoms: _284  and  _286
REMARK  118  A    between atoms: _286  and  _287
REMARK  119  A    between atoms: _286  and  _289
REMARK  120  A    between atoms: _289  and  _290
REMARK  121  A    between atoms: _290  and  _291
REMARK  122  A    between atoms: _291  and  _292
REMARK  123  A    between atoms: _301  and  _303
REMARK  124  A    between atoms: _303  and  _304
REMARK  125  A    between atoms: _303  and  _306
REMARK  126  A    between atoms: _306  and  _307
REMARK  127  A    between atoms: _310  and  _312
REMARK  128  A    between atoms: _312  and  _313
REMARK  129  A    between atoms: _316  and  _318
REMARK  130  A    between atoms: _318  and  _319
REMARK  131  A    between atoms: _318  and  _321
REMARK  132  A    between atoms: _321  and  _322
REMARK  133  A    between atoms: _325  and  _327
REMARK  134  A    between atoms: _327  and  _328
REMARK  135  A    between atoms: _327  and  _330
REMARK  136  A    between atoms: _330  and  _331
REMARK  137  A    between atoms: _334  and  _336
REMARK  138  A    between atoms: _336  and  _337
REMARK  139  A    between atoms: _336  and  _339
REMARK  140  A    between atoms: _339  and  _340
REMARK  141  A    between atoms: _343  and  _345
REMARK  142  A    between atoms: _345  and  _346
REMARK  143  A    between atoms: _345  and  _348
REMARK  144  A    between atoms: _348  and  _349
REMARK  145  A    between atoms: _352  and  _354
REMARK  146  A    between atoms: _354  and  _355
REMARK  147  A    between atoms: _357  and  _359
REMARK  148  A    between atoms: _359  and  _360
REMARK  149  A    between atoms: _363  and  _365
REMARK  150  A    between atoms: _365  and  _366
REMARK  151  A    between atoms: _365  and  _368
REMARK  152  A    between atoms: _368  and  _369
REMARK  153  A    between atoms: _372  and  _374
REMARK  154  A    between atoms: _374  and  _375
REMARK  155  A    between atoms: _374  and  _377
REMARK  156  A    between atoms: _377  and  _378
REMARK  157  A    between atoms: _381  and  _383
REMARK  158  A    between atoms: _383  and  _384
REMARK  159  A    between atoms: _383  and  _386
REMARK  160  A    between atoms: _386  and  _387
REMARK  161  A    between atoms: _390  and  _392
REMARK  162  A    between atoms: _392  and  _393
REMARK  163  A    between atoms: _392  and  _395
REMARK  164  A    between atoms: _398  and  _400
REMARK  165  A    between atoms: _400  and  _401
REMARK  166  A    between atoms: _400  and  _403
REMARK  167  A    between atoms: _403  and  _404
REMARK  168  A    between atoms: _404  and  _405
REMARK  169  A    between atoms: _408  and  _410
REMARK  170  A    between atoms: _410  and  _411
REMARK  171  A    between atoms: _410  and  _413
REMARK  172  A    between atoms: _413  and  _414
REMARK  173  A    between atoms: _414  and  _415
REMARK  174  A    between atoms: _415  and  _416
REMARK  175  A    between atoms: _416  and  _417
REMARK  176  A    between atoms: _421  and  _423
REMARK  177  A    between atoms: _423  and  _424
REMARK  178  A    between atoms: _423  and  _426
REMARK  179  A    between atoms: _426  and  _427
REMARK  180  A    between atoms: _427  and  _428
REMARK  181  A    between atoms: _430  and  _432
REMARK  182  A    between atoms: _432  and  _433
REMARK  183  A    between atoms: _432  and  _435
REMARK  184  A    between atoms: _435  and  _436
REMARK  185  A    between atoms: _439  and  _441
REMARK  186  A    between atoms: _441  and  _442
REMARK  187  A    between atoms: _444  and  _446
REMARK  188  A    between atoms: _446  and  _447
REMARK  189  A    between atoms: _449  and  _451
REMARK  190  A    between atoms: _451  and  _452
REMARK  191  A    between atoms: _451  and  _454
REMARK  192  A    between atoms: _454  and  _455
REMARK  193  A    between atoms: _458  and  _460
REMARK  194  A    between atoms: _460  and  _461
REMARK  195  A    between atoms: _463  and  _465
REMARK  196  A    between atoms: _465  and  _466
REMARK  197  A    between atoms: _468  and  _470
REMARK  198  A    between atoms: _470  and  _471
REMARK  199  A    between atoms: _470  and  _473
REMARK  200  A    between atoms: _473  and  _474
REMARK  201  A    between atoms: _480  and  _482
REMARK  202  A    between atoms: _482  and  _483
REMARK  203  A    between atoms: _482  and  _485
REMARK  204  A    between atoms: _485  and  _486
REMARK  205  A    between atoms: _489  and  _491
REMARK  206  A    between atoms: _491  and  _492
REMARK  207  A    between atoms: _491  and  _494
REMARK  208  A    between atoms: _497  and  _499
REMARK  209  A    between atoms: _499  and  _500
REMARK  210  A    between atoms: _499  and  _502
REMARK  211  A    between atoms: _502  and  _503
REMARK  212  A    between atoms: _506  and  _508
REMARK  213  A    between atoms: _508  and  _509
REMARK  214  A    between atoms: _508  and  _511
REMARK  215  A    between atoms: _511  and  _512
REMARK  216  A    between atoms: _516  and  _517
REMARK  217  A    between atoms: _522  and  _524
REMARK  218  A    between atoms: _524  and  _525
REMARK  219  A    between atoms: _524  and  _527
REMARK  220  A    between atoms: _527  and  _528
REMARK  221  A    between atoms: _531  and  _533
REMARK  222  A    between atoms: _533  and  _534
REMARK  223  A    between atoms: _533  and  _536
REMARK  224  A    between atoms: _536  and  _537
REMARK  225  A    between atoms: _542  and  _544
REMARK  226  A    between atoms: _544  and  _545
REMARK  227  A    between atoms: _544  and  _547
REMARK  228  A    between atoms: _550  and  _552
REMARK  229  A    between atoms: _552  and  _553
REMARK  230  A    between atoms: _552  and  _555
REMARK  231  A    between atoms: _555  and  _556
REMARK  232  A    between atoms: _559  and  _561
REMARK  233  A    between atoms: _561  and  _562
REMARK  234  A    between atoms: _564  and  _566
REMARK  235  A    between atoms: _566  and  _567
REMARK  236  A    between atoms: _566  and  _569
REMARK  237  A    between atoms: _569  and  _570
REMARK  238  A    between atoms: _570  and  _571
REMARK  239  A    between atoms: _571  and  _572
REMARK                            x       y       z     vdW  Elec       q    Type
REMARK                         _______ _______ _______ _____ _____    ______ ____
ROOT
ATOM      1  O   HOH     1       4.899  30.247  -2.949  0.00  0.00    +0.000 OA
ENDROOT
TORSDOF 0
REMARK  Name = ../refined-set-2016/4a6b/4a6b_pocket.pdb
REMARK  239 active torsions:
REMARK  status: ('A' for Active; 'I' for Inactive)
REMARK    1  A    between atoms: _1  and  _3
REMARK    2  A    between atoms: _3  and  _4
REMARK    3  A    between atoms: _3  and  _6
REMARK    4  A    between atoms: _6  and  _7
REMARK    5  A    between atoms: _7  and  _8
REMARK    6  A    between atoms: _8  and  _9
REMARK    7  A    between atoms: _18  and  _20
REMARK    8  A    between atoms: _20  and  _21
REMARK    9  A    between atoms: _20  and  _23
REMARK   10  A    between atoms: _23  and  _24
REMARK   11  A    between atoms: _27  and  _29
REMARK   12  A    between atoms: _29  and  _30
REMARK   13  A    between atoms: _29  and  _32
REMARK   14  A    between atoms: _32  and  _33
REMARK   15  A    between atoms: _36  and  _38
REMARK   16  A    between atoms: _38  and  _39
REMARK   17  A    between atoms: _38  and  _41
REMARK   18  A    between atoms: _41  and  _42
REMARK   19  A    between atoms: _45  and  _47
REMARK   20  A    between atoms: _47  and  _48
REMARK   21  A    between atoms: _47  and  _50
REMARK   22  A    between atoms: _50  and  _51
REMARK   23  A    between atoms: _54  and  _56
REMARK   24  A    between atoms: _56  and  _57
REMARK   25  A    between atoms: _59  and  _61
REMARK   26  A    between atoms: _61  and  _62
REMARK   27  A    between atoms: _65  and  _67
REMARK   28  A    between atoms: _67  and  _68
REMARK   29  A    between atoms: _67  and  _70
REMARK   30  A    between atoms: _70  and  _71
REMARK   31  A    between atoms: _74  and  _76
REMARK   32  A    between atoms: _76  and  _77
REMARK   33  A    between atoms: _76  and  _79
REMARK   34  A    between atoms: _79  and  _80
REMARK   35  A    between atoms: _83  and  _85
REMARK   36  A    between atoms: _85  and  _86
REMARK   37  A    between atoms: _85  and  _88
REMARK   38  A    between atoms: _88  and  _89
REMARK   39  A    between atoms: _92  and  _94
REMARK   40  A    between atoms: _94  and  _95
REMARK   41  A    between atoms: _94  and  _97
REMARK   42  A    between atoms: _100  and  _102
REMARK   43  A    between atoms: _102  and  _103
REMARK   44  A    between atoms: _102  and  _105
REMARK   45  A    between atoms: _105  and  _106
REMARK   46  A    between atoms: _106  and  _107
REMARK   47  A    between atoms: _107  and  _108
REMARK   48  A    between atoms: _108  and  _109
REMARK   49  A    between atoms: _113  and  _115
REMARK   50  A    between atoms: _115  and  _116
REMARK   51  A    between atoms: _115  and  _118
REMARK   52  A    between atoms: _118  and  _119
REMARK   53  A    between atoms: _119  and  _120
REMARK   54  A    between atoms: _122  and  _124
REMARK   55  A    between atoms: _124  and  _125
REMARK   56  A    between atoms: _124  and  _127
REMARK   57  A    between atoms: _127  and  _128
REMARK   58  A    between atoms: _131  and  _133
REMARK   59  A    between atoms: _133  and  _134
REMARK   60  A    between atoms: _136  and  _138
REMARK   61  A    between atoms: _138  and  _139
REMARK   62  A    between atoms: _141  and  _143
REMARK   63  A    between atoms: _143  and  _144
REMARK   64  A    between atoms: _143  and  _146
REMARK   65  A    between atoms: _146  and  _147
REMARK   66  A    between atoms: _150  and  _152
REMARK   67  A    between atoms: _152  and  _153
REMARK   68  A    between atoms: _155  and  _157
REMARK   69  A    between atoms: _157  and  _158
REMARK   70  A    between atoms: _160  and  _162
REMARK   71  A    between atoms: _162  and  _163
REMARK   72  A    between atoms: _162  and  _165
REMARK   73  A    between atoms: _165  and  _166
REMARK   74  A    between atoms: _172  and  _174
REMARK   75  A    between atoms: _174  and  _175
REMARK   76  A    between atoms: _174  and  _177
REMARK   77  A    between atoms: _177  and  _178
REMARK   78  A    between atoms: _181  and  _183
REMARK   79  A    between atoms: _183  and  _184
REMARK   80  A    between atoms: _183  and  _186
REMARK   81  A    between atoms: _189  and  _191
REMARK   82  A    between atoms: _191  and  _192
REMARK   83  A    between atoms: _191  and  _194
REMARK   84  A    between atoms: _194  and  _195
REMARK   85  A    between atoms: _198  and  _200
REMARK   86  A    between atoms: _200  and  _201
REMARK   87  A    between atoms: _200  and  _203
REMARK   88  A    between atoms: _203  and  _204
REMARK   89  A    between atoms: _208  and  _209
REMARK   90  A    between atoms: _214  and  _216
REMARK   91  A    between atoms: _216  and  _217
REMARK   92  A    between atoms: _216  and  _219
REMARK   93  A    between atoms: _219  and  _220
REMARK   94  A    between atoms: _223  and  _225
REMARK   95  A    between atoms: _225  and  _226
REMARK   96  A    between atoms: _225  and  _228
REMARK   97  A    between atoms: _228  and  _229
REMARK   98  A    between atoms: _234  and  _236
REMARK   99  A    between atoms: _236  and  _237
REMARK  100  A    between atoms: _236  and  _239
REMARK  101  A    between atoms: _242  and  _244
REMARK  102  A    between atoms: _244  and  _245
REMARK  103  A    between atoms: _244  and  _247
REMARK  104  A    between atoms: _247  and  _248
REMARK  105  A    between atoms: _251  and  _253
REMARK  106  A    between atoms: _253  and  _254
REMARK  107  A    between atoms: _256  and  _258
REMARK  108  A    between atoms: _258  and  _259
REMARK  109  A    between atoms: _258  and  _261
REMARK  110  A    between atoms: _261  and  _262
REMARK  111  A    between atoms: _262  and  _263
REMARK  112  A    between atoms: _263  and  _264
REMARK  113  A    between atoms: _273  and  _275
REMARK  114  A    between atoms: _275  and  _276
REMARK  115  A    between atoms: _275  and  _278
REMARK  116  A    between atoms: _278  and  _279
REMARK  117  A    between atoms: _284  and  _286
REMARK  118  A    between atoms: _286  and  _287
REMARK  119  A    between atoms: _286  and  _289
REMARK  120  A    between atoms: _289  and  _290
REMARK  121  A    between atoms: _290  and  _291
REMARK  122  A    between atoms: _291  and  _292
REMARK  123  A    between atoms: _301  and  _303
REMARK  124  A    between atoms: _303  and  _304
REMARK  125  A    between atoms: _303  and  _306
REMARK  126  A    between atoms: _306  and  _307
REMARK  127  A    between atoms: _310  and  _312
REMARK  128  A    between atoms: _312  and  _313
REMARK  129  A    between atoms: _316  and  _318
REMARK  130  A    between atoms: _318  and  _319
REMARK  131  A    between atoms: _318  and  _321
REMARK  132  A    between atoms: _321  and  _322
REMARK  133  A    between atoms: _325  and  _327
REMARK  134  A    between atoms: _327  and  _328
REMARK  135  A    between atoms: _327  and  _330
REMARK  136  A    between atoms: _330  and  _331
REMARK  137  A    between atoms: _334  and  _336
REMARK  138  A    between atoms: _336  and  _337
REMARK  139  A    between atoms: _336  and  _339
REMARK  140  A    between atoms: _339  and  _340
REMARK  141  A    between atoms: _343  and  _345
REMARK  142  A    between atoms: _345  and  _346
REMARK  143  A    between atoms: _345  and  _348
REMARK  144  A    between atoms: _348  and  _349
REMARK  145  A    between atoms: _352  and  _354
REMARK  146  A    between atoms: _354  and  _355
REMARK  147  A    between atoms: _357  and  _359
REMARK  148  A    between atoms: _359  and  _360
REMARK  149  A    between atoms: _363  and  _365
REMARK  150  A    between atoms: _365  and  _366
REMARK  151  A    between atoms: _365  and  _368
REMARK  152  A    between atoms: _368  and  _369
REMARK  153  A    between atoms: _372  and  _374
REMARK  154  A    between atoms: _374  and  _375
REMARK  155  A    between atoms: _374  and  _377
REMARK  156  A    between atoms: _377  and  _378
REMARK  157  A    between atoms: _381  and  _383
REMARK  158  A    between atoms: _383  and  _384
REMARK  159  A    between atoms: _383  and  _386
REMARK  160  A    between atoms: _386  and  _387
REMARK  161  A    between atoms: _390  and  _392
REMARK  162  A    between atoms: _392  and  _393
REMARK  163  A    between atoms: _392  and  _395
REMARK  164  A    between atoms: _398  and  _400
REMARK  165  A    between atoms: _400  and  _401
REMARK  166  A    between atoms: _400  and  _403
REMARK  167  A    between atoms: _403  and  _404
REMARK  168  A    between atoms: _404  and  _405
REMARK  169  A    between atoms: _408  and  _410
REMARK  170  A    between atoms: _410  and  _411
REMARK  171  A    between atoms: _410  and  _413
REMARK  172  A    between atoms: _413  and  _414
REMARK  173  A    between atoms: _414  and  _415
REMARK  174  A    between atoms: _415  and  _416
REMARK  175  A    between atoms: _416  and  _417
REMARK  176  A    between atoms: _421  and  _423
REMARK  177  A    between atoms: _423  and  _424
REMARK  178  A    between atoms: _423  and  _426
REMARK  179  A    between atoms: _426  and  _427
REMARK  180  A    between atoms: _427  and  _428
REMARK  181  A    between atoms: _430  and  _432
REMARK  182  A    between atoms: _432  and  _433
REMARK  183  A    between atoms: _432  and  _435
REMARK  184  A    between atoms: _435  and  _436
REMARK  185  A    between atoms: _439  and  _441
REMARK  186  A    between atoms: _441  and  _442
REMARK  187  A    between atoms: _444  and  _446
REMARK  188  A    between atoms: _446  and  _447
REMARK  189  A    between atoms: _449  and  _451
REMARK  190  A    between atoms: _451  and  _452
REMARK  191  A    between atoms: _451  and  _454
REMARK  192  A    between atoms: _454  and  _455
REMARK  193  A    between atoms: _458  and  _460
REMARK  194  A    between atoms: _460  and  _461
REMARK  195  A    between atoms: _463  and  _465
REMARK  196  A    between atoms: _465  and  _466
REMARK  197  A    between atoms: _468  and  _470
REMARK  198  A    between atoms: _470  and  _471
REMARK  199  A    between atoms: _470  and  _473
REMARK  200  A    between atoms: _473  and  _474
REMARK  201  A    between atoms: _480  and  _482
REMARK  202  A    between atoms: _482  and  _483
REMARK  203  A    between atoms: _482  and  _485
REMARK  204  A    between atoms: _485  and  _486
REMARK  205  A    between atoms: _489  and  _491
REMARK  206  A    between atoms: _491  and  _492
REMARK  207  A    between atoms: _491  and  _494
REMARK  208  A    between atoms: _497  and  _499
REMARK  209  A    between atoms: _499  and  _500
REMARK  210  A    between atoms: _499  and  _502
REMARK  211  A    between atoms: _502  and  _503
REMARK  212  A    between atoms: _506  and  _508
REMARK  213  A    between atoms: _508  and  _509
REMARK  214  A    between atoms: _508  and  _511
REMARK  215  A    between atoms: _511  and  _512
REMARK  216  A    between atoms: _516  and  _517
REMARK  217  A    between atoms: _522  and  _524
REMARK  218  A    between atoms: _524  and  _525
REMARK  219  A    between atoms: _524  and  _527
REMARK  220  A    between atoms: _527  and  _528
REMARK  221  A    between atoms: _531  and  _533
REMARK  222  A    between atoms: _533  and  _534
REMARK  223  A    between atoms: _533  and  _536
REMARK  224  A    between atoms: _536  and  _537
REMARK  225  A    between atoms: _542  and  _544
REMARK  226  A    between atoms: _544  and  _545
REMARK  227  A    between atoms: _544  and  _547
REMARK  228  A    between atoms: _550  and  _552
REMARK  229  A    between atoms: _552  and  _553
REMARK  230  A    between atoms: _552  and  _555
REMARK  231  A    between atoms: _555  and  _556
REMARK  232  A    between atoms: _559  and  _561
REMARK  233  A    between atoms: _561  and  _562
REMARK  234  A    between atoms: _564  and  _566
REMARK  235  A    between atoms: _566  and  _567
REMARK  236  A    between atoms: _566  and  _569
REMARK  237  A    between atoms: _569  and  _570
REMARK  238  A    between atoms: _570  and  _571
REMARK  239  A    between atoms: _571  and  _572
REMARK                            x       y       z     vdW  Elec       q    Type
REMARK                         _______ _______ _______ _____ _____    ______ ____
ROOT
ATOM      1  O   HOH     1       7.193  24.283  -6.471  0.00  0.00    +0.000 OA
ENDROOT
TORSDOF 0
REMARK  Name = ../refined-set-2016/4a6b/4a6b_pocket.pdb
REMARK  239 active torsions:
REMARK  status: ('A' for Active; 'I' for Inactive)
REMARK    1  A    between atoms: _1  and  _3
REMARK    2  A    between atoms: _3  and  _4
REMARK    3  A    between atoms: _3  and  _6
REMARK    4  A    between atoms: _6  and  _7
REMARK    5  A    between atoms: _7  and  _8
REMARK    6  A    between atoms: _8  and  _9
REMARK    7  A    between atoms: _18  and  _20
REMARK    8  A    between atoms: _20  and  _21
REMARK    9  A    between atoms: _20  and  _23
REMARK   10  A    between atoms: _23  and  _24
REMARK   11  A    between atoms: _27  and  _29
REMARK   12  A    between atoms: _29  and  _30
REMARK   13  A    between atoms: _29  and  _32
REMARK   14  A    between atoms: _32  and  _33
REMARK   15  A    between atoms: _36  and  _38
REMARK   16  A    between atoms: _38  and  _39
REMARK   17  A    between atoms: _38  and  _41
REMARK   18  A    between atoms: _41  and  _42
REMARK   19  A    between atoms: _45  and  _47
REMARK   20  A    between atoms: _47  and  _48
REMARK   21  A    between atoms: _47  and  _50
REMARK   22  A    between atoms: _50  and  _51
REMARK   23  A    between atoms: _54  and  _56
REMARK   24  A    between atoms: _56  and  _57
REMARK   25  A    between atoms: _59  and  _61
REMARK   26  A    between atoms: _61  and  _62
REMARK   27  A    between atoms: _65  and  _67
REMARK   28  A    between atoms: _67  and  _68
REMARK   29  A    between atoms: _67  and  _70
REMARK   30  A    between atoms: _70  and  _71
REMARK   31  A    between atoms: _74  and  _76
REMARK   32  A    between atoms: _76  and  _77
REMARK   33  A    between atoms: _76  and  _79
REMARK   34  A    between atoms: _79  and  _80
REMARK   35  A    between atoms: _83  and  _85
REMARK   36  A    between atoms: _85  and  _86
REMARK   37  A    between atoms: _85  and  _88
REMARK   38  A    between atoms: _88  and  _89
REMARK   39  A    between atoms: _92  and  _94
REMARK   40  A    between atoms: _94  and  _95
REMARK   41  A    between atoms: _94  and  _97
REMARK   42  A    between atoms: _100  and  _102
REMARK   43  A    between atoms: _102  and  _103
REMARK   44  A    between atoms: _102  and  _105
REMARK   45  A    between atoms: _105  and  _106
REMARK   46  A    between atoms: _106  and  _107
REMARK   47  A    between atoms: _107  and  _108
REMARK   48  A    between atoms: _108  and  _109
REMARK   49  A    between atoms: _113  and  _115
REMARK   50  A    between atoms: _115  and  _116
REMARK   51  A    between atoms: _115  and  _118
REMARK   52  A    between atoms: _118  and  _119
REMARK   53  A    between atoms: _119  and  _120
REMARK   54  A    between atoms: _122  and  _124
REMARK   55  A    between atoms: _124  and  _125
REMARK   56  A    between atoms: _124  and  _127
REMARK   57  A    between atoms: _127  and  _128
REMARK   58  A    between atoms: _131  and  _133
REMARK   59  A    between atoms: _133  and  _134
REMARK   60  A    between atoms: _136  and  _138
REMARK   61  A    between atoms: _138  and  _139
REMARK   62  A    between atoms: _141  and  _143
REMARK   63  A    between atoms: _143  and  _144
REMARK   64  A    between atoms: _143  and  _146
REMARK   65  A    between atoms: _146  and  _147
REMARK   66  A    between atoms: _150  and  _152
REMARK   67  A    between atoms: _152  and  _153
REMARK   68  A    between atoms: _155  and  _157
REMARK   69  A    between atoms: _157  and  _158
REMARK   70  A    between atoms: _160  and  _162
REMARK   71  A    between atoms: _162  and  _163
REMARK   72  A    between atoms: _162  and  _165
REMARK   73  A    between atoms: _165  and  _166
REMARK   74  A    between atoms: _172  and  _174
REMARK   75  A    between atoms: _174  and  _175
REMARK   76  A    between atoms: _174  and  _177
REMARK   77  A    between atoms: _177  and  _178
REMARK   78  A    between atoms: _181  and  _183
REMARK   79  A    between atoms: _183  and  _184
REMARK   80  A    between atoms: _183  and  _186
REMARK   81  A    between atoms: _189  and  _191
REMARK   82  A    between atoms: _191  and  _192
REMARK   83  A    between atoms: _191  and  _194
REMARK   84  A    between atoms: _194  and  _195
REMARK   85  A    between atoms: _198  and  _200
REMARK   86  A    between atoms: _200  and  _201
REMARK   87  A    between atoms: _200  and  _203
REMARK   88  A    between atoms: _203  and  _204
REMARK   89  A    between atoms: _208  and  _209
REMARK   90  A    between atoms: _214  and  _216
REMARK   91  A    between atoms: _216  and  _217
REMARK   92  A    between atoms: _216  and  _219
REMARK   93  A    between atoms: _219  and  _220
REMARK   94  A    between atoms: _223  and  _225
REMARK   95  A    between atoms: _225  and  _226
REMARK   96  A    between atoms: _225  and  _228
REMARK   97  A    between atoms: _228  and  _229
REMARK   98  A    between atoms: _234  and  _236
REMARK   99  A    between atoms: _236  and  _237
REMARK  100  A    between atoms: _236  and  _239
REMARK  101  A    between atoms: _242  and  _244
REMARK  102  A    between atoms: _244  and  _245
REMARK  103  A    between atoms: _244  and  _247
REMARK  104  A    between atoms: _247  and  _248
REMARK  105  A    between atoms: _251  and  _253
REMARK  106  A    between atoms: _253  and  _254
REMARK  107  A    between atoms: _256  and  _258
REMARK  108  A    between atoms: _258  and  _259
REMARK  109  A    between atoms: _258  and  _261
REMARK  110  A    between atoms: _261  and  _262
REMARK  111  A    between atoms: _262  and  _263
REMARK  112  A    between atoms: _263  and  _264
REMARK  113  A    between atoms: _273  and  _275
REMARK  114  A    between atoms: _275  and  _276
REMARK  115  A    between atoms: _275  and  _278
REMARK  116  A    between atoms: _278  and  _279
REMARK  117  A    between atoms: _284  and  _286
REMARK  118  A    between atoms: _286  and  _287
REMARK  119  A    between atoms: _286  and  _289
REMARK  120  A    between atoms: _289  and  _290
REMARK  121  A    between atoms: _290  and  _291
REMARK  122  A    between atoms: _291  and  _292
REMARK  123  A    between atoms: _301  and  _303
REMARK  124  A    between atoms: _303  and  _304
REMARK  125  A    between atoms: _303  and  _306
REMARK  126  A    between atoms: _306  and  _307
REMARK  127  A    between atoms: _310  and  _312
REMARK  128  A    between atoms: _312  and  _313
REMARK  129  A    between atoms: _316  and  _318
REMARK  130  A    between atoms: _318  and  _319
REMARK  131  A    between atoms: _318  and  _321
REMARK  132  A    between atoms: _321  and  _322
REMARK  133  A    between atoms: _325  and  _327
REMARK  134  A    between atoms: _327  and  _328
REMARK  135  A    between atoms: _327  and  _330
REMARK  136  A    between atoms: _330  and  _331
REMARK  137  A    between atoms: _334  and  _336
REMARK  138  A    between atoms: _336  and  _337
REMARK  139  A    between atoms: _336  and  _339
REMARK  140  A    between atoms: _339  and  _340
REMARK  141  A    between atoms: _343  and  _345
REMARK  142  A    between atoms: _345  and  _346
REMARK  143  A    between atoms: _345  and  _348
REMARK  144  A    between atoms: _348  and  _349
REMARK  145  A    between atoms: _352  and  _354
REMARK  146  A    between atoms: _354  and  _355
REMARK  147  A    between atoms: _357  and  _359
REMARK  148  A    between atoms: _359  and  _360
REMARK  149  A    between atoms: _363  and  _365
REMARK  150  A    between atoms: _365  and  _366
REMARK  151  A    between atoms: _365  and  _368
REMARK  152  A    between atoms: _368  and  _369
REMARK  153  A    between atoms: _372  and  _374
REMARK  154  A    between atoms: _374  and  _375
REMARK  155  A    between atoms: _374  and  _377
REMARK  156  A    between atoms: _377  and  _378
REMARK  157  A    between atoms: _381  and  _383
REMARK  158  A    between atoms: _383  and  _384
REMARK  159  A    between atoms: _383  and  _386
REMARK  160  A    between atoms: _386  and  _387
REMARK  161  A    between atoms: _390  and  _392
REMARK  162  A    between atoms: _392  and  _393
REMARK  163  A    between atoms: _392  and  _395
REMARK  164  A    between atoms: _398  and  _400
REMARK  165  A    between atoms: _400  and  _401
REMARK  166  A    between atoms: _400  and  _403
REMARK  167  A    between atoms: _403  and  _404
REMARK  168  A    between atoms: _404  and  _405
REMARK  169  A    between atoms: _408  and  _410
REMARK  170  A    between atoms: _410  and  _411
REMARK  171  A    between atoms: _410  and  _413
REMARK  172  A    between atoms: _413  and  _414
REMARK  173  A    between atoms: _414  and  _415
REMARK  174  A    between atoms: _415  and  _416
REMARK  175  A    between atoms: _416  and  _417
REMARK  176  A    between atoms: _421  and  _423
REMARK  177  A    between atoms: _423  and  _424
REMARK  178  A    between atoms: _423  and  _426
REMARK  179  A    between atoms: _426  and  _427
REMARK  180  A    between atoms: _427  and  _428
REMARK  181  A    between atoms: _430  and  _432
REMARK  182  A    between atoms: _432  and  _433
REMARK  183  A    between atoms: _432  and  _435
REMARK  184  A    between atoms: _435  and  _436
REMARK  185  A    between atoms: _439  and  _441
REMARK  186  A    between atoms: _441  and  _442
REMARK  187  A    between atoms: _444  and  _446
REMARK  188  A    between atoms: _446  and  _447
REMARK  189  A    between atoms: _449  and  _451
REMARK  190  A    between atoms: _451  and  _452
REMARK  191  A    between atoms: _451  and  _454
REMARK  192  A    between atoms: _454  and  _455
REMARK  193  A    between atoms: _458  and  _460
REMARK  194  A    between atoms: _460  and  _461
REMARK  195  A    between atoms: _463  and  _465
REMARK  196  A    between atoms: _465  and  _466
REMARK  197  A    between atoms: _468  and  _470
REMARK  198  A    between atoms: _470  and  _471
REMARK  199  A    between atoms: _470  and  _473
REMARK  200  A    between atoms: _473  and  _474
REMARK  201  A    between atoms: _480  and  _482
REMARK  202  A    between atoms: _482  and  _483
REMARK  203  A    between atoms: _482  and  _485
REMARK  204  A    between atoms: _485  and  _486
REMARK  205  A    between atoms: _489  and  _491
REMARK  206  A    between atoms: _491  and  _492
REMARK  207  A    between atoms: _491  and  _494
REMARK  208  A    between atoms: _497  and  _499
REMARK  209  A    between atoms: _499  and  _500
REMARK  210  A    between atoms: _499  and  _502
REMARK  211  A    between atoms: _502  and  _503
REMARK  212  A    between atoms: _506  and  _508
REMARK  213  A    between atoms: _508  and  _509
REMARK  214  A    between atoms: _508  and  _511
REMARK  215  A    between atoms: _511  and  _512
REMARK  216  A    between atoms: _516  and  _517
REMARK  217  A    between atoms: _522  and  _524
REMARK  218  A    between atoms: _524  and  _525
REMARK  219  A    between atoms: _524  and  _527
REMARK  220  A    between atoms: _527  and  _528
REMARK  221  A    between atoms: _531  and  _533
REMARK  222  A    between atoms: _533  and  _534
REMARK  223  A    between atoms: _533  and  _536
REMARK  224  A    between atoms: _536  and  _537
REMARK  225  A    between atoms: _542  and  _544
REMARK  226  A    between atoms: _544  and  _545
REMARK  227  A    between atoms: _544  and  _547
REMARK  228  A    between atoms: _550  and  _552
REMARK  229  A    between atoms: _552  and  _553
REMARK  230  A    between atoms: _552  and  _555
REMARK  231  A    between atoms: _555  and  _556
REMARK  232  A    between atoms: _559  and  _561
REMARK  233  A    between atoms: _561  and  _562
REMARK  234  A    between atoms: _564  and  _566
REMARK  235  A    between atoms: _566  and  _567
REMARK  236  A    between atoms: _566  and  _569
REMARK  237  A    between atoms: _569  and  _570
REMARK  238  A    between atoms: _570  and  _571
REMARK  239  A    between atoms: _571  and  _572
REMARK                            x       y       z     vdW  Elec       q    Type
REMARK                         _______ _______ _______ _____ _____    ______ ____
ROOT
ATOM      1  O   HOH     1      22.252  24.289   4.978  0.00  0.00    +0.000 OA
ENDROOT
TORSDOF 0
REMARK  Name = ../refined-set-2016/4a6b/4a6b_pocket.pdb
REMARK  239 active torsions:
REMARK  status: ('A' for Active; 'I' for Inactive)
REMARK    1  A    between atoms: _1  and  _3
REMARK    2  A    between atoms: _3  and  _4
REMARK    3  A    between atoms: _3  and  _6
REMARK    4  A    between atoms: _6  and  _7
REMARK    5  A    between atoms: _7  and  _8
REMARK    6  A    between atoms: _8  and  _9
REMARK    7  A    between atoms: _18  and  _20
REMARK    8  A    between atoms: _20  and  _21
REMARK    9  A    between atoms: _20  and  _23
REMARK   10  A    between atoms: _23  and  _24
REMARK   11  A    between atoms: _27  and  _29
REMARK   12  A    between atoms: _29  and  _30
REMARK   13  A    between atoms: _29  and  _32
REMARK   14  A    between atoms: _32  and  _33
REMARK   15  A    between atoms: _36  and  _38
REMARK   16  A    between atoms: _38  and  _39
REMARK   17  A    between atoms: _38  and  _41
REMARK   18  A    between atoms: _41  and  _42
REMARK   19  A    between atoms: _45  and  _47
REMARK   20  A    between atoms: _47  and  _48
REMARK   21  A    between atoms: _47  and  _50
REMARK   22  A    between atoms: _50  and  _51
REMARK   23  A    between atoms: _54  and  _56
REMARK   24  A    between atoms: _56  and  _57
REMARK   25  A    between atoms: _59  and  _61
REMARK   26  A    between atoms: _61  and  _62
REMARK   27  A    between atoms: _65  and  _67
REMARK   28  A    between atoms: _67  and  _68
REMARK   29  A    between atoms: _67  and  _70
REMARK   30  A    between atoms: _70  and  _71
REMARK   31  A    between atoms: _74  and  _76
REMARK   32  A    between atoms: _76  and  _77
REMARK   33  A    between atoms: _76  and  _79
REMARK   34  A    between atoms: _79  and  _80
REMARK   35  A    between atoms: _83  and  _85
REMARK   36  A    between atoms: _85  and  _86
REMARK   37  A    between atoms: _85  and  _88
REMARK   38  A    between atoms: _88  and  _89
REMARK   39  A    between atoms: _92  and  _94
REMARK   40  A    between atoms: _94  and  _95
REMARK   41  A    between atoms: _94  and  _97
REMARK   42  A    between atoms: _100  and  _102
REMARK   43  A    between atoms: _102  and  _103
REMARK   44  A    between atoms: _102  and  _105
REMARK   45  A    between atoms: _105  and  _106
REMARK   46  A    between atoms: _106  and  _107
REMARK   47  A    between atoms: _107  and  _108
REMARK   48  A    between atoms: _108  and  _109
REMARK   49  A    between atoms: _113  and  _115
REMARK   50  A    between atoms: _115  and  _116
REMARK   51  A    between atoms: _115  and  _118
REMARK   52  A    between atoms: _118  and  _119
REMARK   53  A    between atoms: _119  and  _120
REMARK   54  A    between atoms: _122  and  _124
REMARK   55  A    between atoms: _124  and  _125
REMARK   56  A    between atoms: _124  and  _127
REMARK   57  A    between atoms: _127  and  _128
REMARK   58  A    between atoms: _131  and  _133
REMARK   59  A    between atoms: _133  and  _134
REMARK   60  A    between atoms: _136  and  _138
REMARK   61  A    between atoms: _138  and  _139
REMARK   62  A    between atoms: _141  and  _143
REMARK   63  A    between atoms: _143  and  _144
REMARK   64  A    between atoms: _143  and  _146
REMARK   65  A    between atoms: _146  and  _147
REMARK   66  A    between atoms: _150  and  _152
REMARK   67  A    between atoms: _152  and  _153
REMARK   68  A    between atoms: _155  and  _157
REMARK   69  A    between atoms: _157  and  _158
REMARK   70  A    between atoms: _160  and  _162
REMARK   71  A    between atoms: _162  and  _163
REMARK   72  A    between atoms: _162  and  _165
REMARK   73  A    between atoms: _165  and  _166
REMARK   74  A    between atoms: _172  and  _174
REMARK   75  A    between atoms: _174  and  _175
REMARK   76  A    between atoms: _174  and  _177
REMARK   77  A    between atoms: _177  and  _178
REMARK   78  A    between atoms: _181  and  _183
REMARK   79  A    between atoms: _183  and  _184
REMARK   80  A    between atoms: _183  and  _186
REMARK   81  A    between atoms: _189  and  _191
REMARK   82  A    between atoms: _191  and  _192
REMARK   83  A    between atoms: _191  and  _194
REMARK   84  A    between atoms: _194  and  _195
REMARK   85  A    between atoms: _198  and  _200
REMARK   86  A    between atoms: _200  and  _201
REMARK   87  A    between atoms: _200  and  _203
REMARK   88  A    between atoms: _203  and  _204
REMARK   89  A    between atoms: _208  and  _209
REMARK   90  A    between atoms: _214  and  _216
REMARK   91  A    between atoms: _216  and  _217
REMARK   92  A    between atoms: _216  and  _219
REMARK   93  A    between atoms: _219  and  _220
REMARK   94  A    between atoms: _223  and  _225
REMARK   95  A    between atoms: _225  and  _226
REMARK   96  A    between atoms: _225  and  _228
REMARK   97  A    between atoms: _228  and  _229
REMARK   98  A    between atoms: _234  and  _236
REMARK   99  A    between atoms: _236  and  _237
REMARK  100  A    between atoms: _236  and  _239
REMARK  101  A    between atoms: _242  and  _244
REMARK  102  A    between atoms: _244  and  _245
REMARK  103  A    between atoms: _244  and  _247
REMARK  104  A    between atoms: _247  and  _248
REMARK  105  A    between atoms: _251  and  _253
REMARK  106  A    between atoms: _253  and  _254
REMARK  107  A    between atoms: _256  and  _258
REMARK  108  A    between atoms: _258  and  _259
REMARK  109  A    between atoms: _258  and  _261
REMARK  110  A    between atoms: _261  and  _262
REMARK  111  A    between atoms: _262  and  _263
REMARK  112  A    between atoms: _263  and  _264
REMARK  113  A    between atoms: _273  and  _275
REMARK  114  A    between atoms: _275  and  _276
REMARK  115  A    between atoms: _275  and  _278
REMARK  116  A    between atoms: _278  and  _279
REMARK  117  A    between atoms: _284  and  _286
REMARK  118  A    between atoms: _286  and  _287
REMARK  119  A    between atoms: _286  and  _289
REMARK  120  A    between atoms: _289  and  _290
REMARK  121  A    between atoms: _290  and  _291
REMARK  122  A    between atoms: _291  and  _292
REMARK  123  A    between atoms: _301  and  _303
REMARK  124  A    between atoms: _303  and  _304
REMARK  125  A    between atoms: _303  and  _306
REMARK  126  A    between atoms: _306  and  _307
REMARK  127  A    between atoms: _310  and  _312
REMARK  128  A    between atoms: _312  and  _313
REMARK  129  A    between atoms: _316  and  _318
REMARK  130  A    between atoms: _318  and  _319
REMARK  131  A    between atoms: _318  and  _321
REMARK  132  A    between atoms: _321  and  _322
REMARK  133  A    between atoms: _325  and  _327
REMARK  134  A    between atoms: _327  and  _328
REMARK  135  A    between atoms: _327  and  _330
REMARK  136  A    between atoms: _330  and  _331
REMARK  137  A    between atoms: _334  and  _336
REMARK  138  A    between atoms: _336  and  _337
REMARK  139  A    between atoms: _336  and  _339
REMARK  140  A    between atoms: _339  and  _340
REMARK  141  A    between atoms: _343  and  _345
REMARK  142  A    between atoms: _345  and  _346
REMARK  143  A    between atoms: _345  and  _348
REMARK  144  A    between atoms: _348  and  _349
REMARK  145  A    between atoms: _352  and  _354
REMARK  146  A    between atoms: _354  and  _355
REMARK  147  A    between atoms: _357  and  _359
REMARK  148  A    between atoms: _359  and  _360
REMARK  149  A    between atoms: _363  and  _365
REMARK  150  A    between atoms: _365  and  _366
REMARK  151  A    between atoms: _365  and  _368
REMARK  152  A    between atoms: _368  and  _369
REMARK  153  A    between atoms: _372  and  _374
REMARK  154  A    between atoms: _374  and  _375
REMARK  155  A    between atoms: _374  and  _377
REMARK  156  A    between atoms: _377  and  _378
REMARK  157  A    between atoms: _381  and  _383
REMARK  158  A    between atoms: _383  and  _384
REMARK  159  A    between atoms: _383  and  _386
REMARK  160  A    between atoms: _386  and  _387
REMARK  161  A    between atoms: _390  and  _392
REMARK  162  A    between atoms: _392  and  _393
REMARK  163  A    between atoms: _392  and  _395
REMARK  164  A    between atoms: _398  and  _400
REMARK  165  A    between atoms: _400  and  _401
REMARK  166  A    between atoms: _400  and  _403
REMARK  167  A    between atoms: _403  and  _404
REMARK  168  A    between atoms: _404  and  _405
REMARK  169  A    between atoms: _408  and  _410
REMARK  170  A    between atoms: _410  and  _411
REMARK  171  A    between atoms: _410  and  _413
REMARK  172  A    between atoms: _413  and  _414
REMARK  173  A    between atoms: _414  and  _415
REMARK  174  A    between atoms: _415  and  _416
REMARK  175  A    between atoms: _416  and  _417
REMARK  176  A    between atoms: _421  and  _423
REMARK  177  A    between atoms: _423  and  _424
REMARK  178  A    between atoms: _423  and  _426
REMARK  179  A    between atoms: _426  and  _427
REMARK  180  A    between atoms: _427  and  _428
REMARK  181  A    between atoms: _430  and  _432
REMARK  182  A    between atoms: _432  and  _433
REMARK  183  A    between atoms: _432  and  _435
REMARK  184  A    between atoms: _435  and  _436
REMARK  185  A    between atoms: _439  and  _441
REMARK  186  A    between atoms: _441  and  _442
REMARK  187  A    between atoms: _444  and  _446
REMARK  188  A    between atoms: _446  and  _447
REMARK  189  A    between atoms: _449  and  _451
REMARK  190  A    between atoms: _451  and  _452
REMARK  191  A    between atoms: _451  and  _454
REMARK  192  A    between atoms: _454  and  _455
REMARK  193  A    between atoms: _458  and  _460
REMARK  194  A    between atoms: _460  and  _461
REMARK  195  A    between atoms: _463  and  _465
REMARK  196  A    between atoms: _465  and  _466
REMARK  197  A    between atoms: _468  and  _470
REMARK  198  A    between atoms: _470  and  _471
REMARK  199  A    between atoms: _470  and  _473
REMARK  200  A    between atoms: _473  and  _474
REMARK  201  A    between atoms: _480  and  _482
REMARK  202  A    between atoms: _482  and  _483
REMARK  203  A    between atoms: _482  and  _485
REMARK  204  A    between atoms: _485  and  _486
REMARK  205  A    between atoms: _489  and  _491
REMARK  206  A    between atoms: _491  and  _492
REMARK  207  A    between atoms: _491  and  _494
REMARK  208  A    between atoms: _497  and  _499
REMARK  209  A    between atoms: _499  and  _500
REMARK  210  A    between atoms: _499  and  _502
REMARK  211  A    between atoms: _502  and  _503
REMARK  212  A    between atoms: _506  and  _508
REMARK  213  A    between atoms: _508  and  _509
REMARK  214  A    between atoms: _508  and  _511
REMARK  215  A    between atoms: _511  and  _512
REMARK  216  A    between atoms: _516  and  _517
REMARK  217  A    between atoms: _522  and  _524
REMARK  218  A    between atoms: _524  and  _525
REMARK  219  A    between atoms: _524  and  _527
REMARK  220  A    between atoms: _527  and  _528
REMARK  221  A    between atoms: _531  and  _533
REMARK  222  A    between atoms: _533  and  _534
REMARK  223  A    between atoms: _533  and  _536
REMARK  224  A    between atoms: _536  and  _537
REMARK  225  A    between atoms: _542  and  _544
REMARK  226  A    between atoms: _544  and  _545
REMARK  227  A    between atoms: _544  and  _547
REMARK  228  A    between atoms: _550  and  _552
REMARK  229  A    between atoms: _552  and  _553
REMARK  230  A    between atoms: _552  and  _555
REMARK  231  A    between atoms: _555  and  _556
REMARK  232  A    between atoms: _559  and  _561
REMARK  233  A    between atoms: _561  and  _562
REMARK  234  A    between atoms: _564  and  _566
REMARK  235  A    between atoms: _566  and  _567
REMARK  236  A    between atoms: _566  and  _569
REMARK  237  A    between atoms: _569  and  _570
REMARK  238  A    between atoms: _570  and  _571
REMARK  239  A    between atoms: _571  and  _572
REMARK                            x       y       z     vdW  Elec       q    Type
REMARK                         _______ _______ _______ _____ _____    ______ ____
ROOT
ATOM      1  O   HOH     1      25.070  19.701   0.325  0.00  0.00    +0.000 OA
ENDROOT
TORSDOF 0
REMARK  Name = ../refined-set-2016/4a6b/4a6b_pocket.pdb
REMARK  239 active torsions:
REMARK  status: ('A' for Active; 'I' for Inactive)
REMARK    1  A    between atoms: _1  and  _3
REMARK    2  A    between atoms: _3  and  _4
REMARK    3  A    between atoms: _3  and  _6
REMARK    4  A    between atoms: _6  and  _7
REMARK    5  A    between atoms: _7  and  _8
REMARK    6  A    between atoms: _8  and  _9
REMARK    7  A    between atoms: _18  and  _20
REMARK    8  A    between atoms: _20  and  _21
REMARK    9  A    between atoms: _20  and  _23
REMARK   10  A    between atoms: _23  and  _24
REMARK   11  A    between atoms: _27  and  _29
REMARK   12  A    between atoms: _29  and  _30
REMARK   13  A    between atoms: _29  and  _32
REMARK   14  A    between atoms: _32  and  _33
REMARK   15  A    between atoms: _36  and  _38
REMARK   16  A    between atoms: _38  and  _39
REMARK   17  A    between atoms: _38  and  _41
REMARK   18  A    between atoms: _41  and  _42
REMARK   19  A    between atoms: _45  and  _47
REMARK   20  A    between atoms: _47  and  _48
REMARK   21  A    between atoms: _47  and  _50
REMARK   22  A    between atoms: _50  and  _51
REMARK   23  A    between atoms: _54  and  _56
REMARK   24  A    between atoms: _56  and  _57
REMARK   25  A    between atoms: _59  and  _61
REMARK   26  A    between atoms: _61  and  _62
REMARK   27  A    between atoms: _65  and  _67
REMARK   28  A    between atoms: _67  and  _68
REMARK   29  A    between atoms: _67  and  _70
REMARK   30  A    between atoms: _70  and  _71
REMARK   31  A    between atoms: _74  and  _76
REMARK   32  A    between atoms: _76  and  _77
REMARK   33  A    between atoms: _76  and  _79
REMARK   34  A    between atoms: _79  and  _80
REMARK   35  A    between atoms: _83  and  _85
REMARK   36  A    between atoms: _85  and  _86
REMARK   37  A    between atoms: _85  and  _88
REMARK   38  A    between atoms: _88  and  _89
REMARK   39  A    between atoms: _92  and  _94
REMARK   40  A    between atoms: _94  and  _95
REMARK   41  A    between atoms: _94  and  _97
REMARK   42  A    between atoms: _100  and  _102
REMARK   43  A    between atoms: _102  and  _103
REMARK   44  A    between atoms: _102  and  _105
REMARK   45  A    between atoms: _105  and  _106
REMARK   46  A    between atoms: _106  and  _107
REMARK   47  A    between atoms: _107  and  _108
REMARK   48  A    between atoms: _108  and  _109
REMARK   49  A    between atoms: _113  and  _115
REMARK   50  A    between atoms: _115  and  _116
REMARK   51  A    between atoms: _115  and  _118
REMARK   52  A    between atoms: _118  and  _119
REMARK   53  A    between atoms: _119  and  _120
REMARK   54  A    between atoms: _122  and  _124
REMARK   55  A    between atoms: _124  and  _125
REMARK   56  A    between atoms: _124  and  _127
REMARK   57  A    between atoms: _127  and  _128
REMARK   58  A    between atoms: _131  and  _133
REMARK   59  A    between atoms: _133  and  _134
REMARK   60  A    between atoms: _136  and  _138
REMARK   61  A    between atoms: _138  and  _139
REMARK   62  A    between atoms: _141  and  _143
REMARK   63  A    between atoms: _143  and  _144
REMARK   64  A    between atoms: _143  and  _146
REMARK   65  A    between atoms: _146  and  _147
REMARK   66  A    between atoms: _150  and  _152
REMARK   67  A    between atoms: _152  and  _153
REMARK   68  A    between atoms: _155  and  _157
REMARK   69  A    between atoms: _157  and  _158
REMARK   70  A    between atoms: _160  and  _162
REMARK   71  A    between atoms: _162  and  _163
REMARK   72  A    between atoms: _162  and  _165
REMARK   73  A    between atoms: _165  and  _166
REMARK   74  A    between atoms: _172  and  _174
REMARK   75  A    between atoms: _174  and  _175
REMARK   76  A    between atoms: _174  and  _177
REMARK   77  A    between atoms: _177  and  _178
REMARK   78  A    between atoms: _181  and  _183
REMARK   79  A    between atoms: _183  and  _184
REMARK   80  A    between atoms: _183  and  _186
REMARK   81  A    between atoms: _189  and  _191
REMARK   82  A    between atoms: _191  and  _192
REMARK   83  A    between atoms: _191  and  _194
REMARK   84  A    between atoms: _194  and  _195
REMARK   85  A    between atoms: _198  and  _200
REMARK   86  A    between atoms: _200  and  _201
REMARK   87  A    between atoms: _200  and  _203
REMARK   88  A    between atoms: _203  and  _204
REMARK   89  A    between atoms: _208  and  _209
REMARK   90  A    between atoms: _214  and  _216
REMARK   91  A    between atoms: _216  and  _217
REMARK   92  A    between atoms: _216  and  _219
REMARK   93  A    between atoms: _219  and  _220
REMARK   94  A    between atoms: _223  and  _225
REMARK   95  A    between atoms: _225  and  _226
REMARK   96  A    between atoms: _225  and  _228
REMARK   97  A    between atoms: _228  and  _229
REMARK   98  A    between atoms: _234  and  _236
REMARK   99  A    between atoms: _236  and  _237
REMARK  100  A    between atoms: _236  and  _239
REMARK  101  A    between atoms: _242  and  _244
REMARK  102  A    between atoms: _244  and  _245
REMARK  103  A    between atoms: _244  and  _247
REMARK  104  A    between atoms: _247  and  _248
REMARK  105  A    between atoms: _251  and  _253
REMARK  106  A    between atoms: _253  and  _254
REMARK  107  A    between atoms: _256  and  _258
REMARK  108  A    between atoms: _258  and  _259
REMARK  109  A    between atoms: _258  and  _261
REMARK  110  A    between atoms: _261  and  _262
REMARK  111  A    between atoms: _262  and  _263
REMARK  112  A    between atoms: _263  and  _264
REMARK  113  A    between atoms: _273  and  _275
REMARK  114  A    between atoms: _275  and  _276
REMARK  115  A    between atoms: _275  and  _278
REMARK  116  A    between atoms: _278  and  _279
REMARK  117  A    between atoms: _284  and  _286
REMARK  118  A    between atoms: _286  and  _287
REMARK  119  A    between atoms: _286  and  _289
REMARK  120  A    between atoms: _289  and  _290
REMARK  121  A    between atoms: _290  and  _291
REMARK  122  A    between atoms: _291  and  _292
REMARK  123  A    between atoms: _301  and  _303
REMARK  124  A    between atoms: _303  and  _304
REMARK  125  A    between atoms: _303  and  _306
REMARK  126  A    between atoms: _306  and  _307
REMARK  127  A    between atoms: _310  and  _312
REMARK  128  A    between atoms: _312  and  _313
REMARK  129  A    between atoms: _316  and  _318
REMARK  130  A    between atoms: _318  and  _319
REMARK  131  A    between atoms: _318  and  _321
REMARK  132  A    between atoms: _321  and  _322
REMARK  133  A    between atoms: _325  and  _327
REMARK  134  A    between atoms: _327  and  _328
REMARK  135  A    between atoms: _327  and  _330
REMARK  136  A    between atoms: _330  and  _331
REMARK  137  A    between atoms: _334  and  _336
REMARK  138  A    between atoms: _336  and  _337
REMARK  139  A    between atoms: _336  and  _339
REMARK  140  A    between atoms: _339  and  _340
REMARK  141  A    between atoms: _343  and  _345
REMARK  142  A    between atoms: _345  and  _346
REMARK  143  A    between atoms: _345  and  _348
REMARK  144  A    between atoms: _348  and  _349
REMARK  145  A    between atoms: _352  and  _354
REMARK  146  A    between atoms: _354  and  _355
REMARK  147  A    between atoms: _357  and  _359
REMARK  148  A    between atoms: _359  and  _360
REMARK  149  A    between atoms: _363  and  _365
REMARK  150  A    between atoms: _365  and  _366
REMARK  151  A    between atoms: _365  and  _368
REMARK  152  A    between atoms: _368  and  _369
REMARK  153  A    between atoms: _372  and  _374
REMARK  154  A    between atoms: _374  and  _375
REMARK  155  A    between atoms: _374  and  _377
REMARK  156  A    between atoms: _377  and  _378
REMARK  157  A    between atoms: _381  and  _383
REMARK  158  A    between atoms: _383  and  _384
REMARK  159  A    between atoms: _383  and  _386
REMARK  160  A    between atoms: _386  and  _387
REMARK  161  A    between atoms: _390  and  _392
REMARK  162  A    between atoms: _392  and  _393
REMARK  163  A    between atoms: _392  and  _395
REMARK  164  A    between atoms: _398  and  _400
REMARK  165  A    between atoms: _400  and  _401
REMARK  166  A    between atoms: _400  and  _403
REMARK  167  A    between atoms: _403  and  _404
REMARK  168  A    between atoms: _404  and  _405
REMARK  169  A    between atoms: _408  and  _410
REMARK  170  A    between atoms: _410  and  _411
REMARK  171  A    between atoms: _410  and  _413
REMARK  172  A    between atoms: _413  and  _414
REMARK  173  A    between atoms: _414  and  _415
REMARK  174  A    between atoms: _415  and  _416
REMARK  175  A    between atoms: _416  and  _417
REMARK  176  A    between atoms: _421  and  _423
REMARK  177  A    between atoms: _423  and  _424
REMARK  178  A    between atoms: _423  and  _426
REMARK  179  A    between atoms: _426  and  _427
REMARK  180  A    between atoms: _427  and  _428
REMARK  181  A    between atoms: _430  and  _432
REMARK  182  A    between atoms: _432  and  _433
REMARK  183  A    between atoms: _432  and  _435
REMARK  184  A    between atoms: _435  and  _436
REMARK  185  A    between atoms: _439  and  _441
REMARK  186  A    between atoms: _441  and  _442
REMARK  187  A    between atoms: _444  and  _446
REMARK  188  A    between atoms: _446  and  _447
REMARK  189  A    between atoms: _449  and  _451
REMARK  190  A    between atoms: _451  and  _452
REMARK  191  A    between atoms: _451  and  _454
REMARK  192  A    between atoms: _454  and  _455
REMARK  193  A    between atoms: _458  and  _460
REMARK  194  A    between atoms: _460  and  _461
REMARK  195  A    between atoms: _463  and  _465
REMARK  196  A    between atoms: _465  and  _466
REMARK  197  A    between atoms: _468  and  _470
REMARK  198  A    between atoms: _470  and  _471
REMARK  199  A    between atoms: _470  and  _473
REMARK  200  A    between atoms: _473  and  _474
REMARK  201  A    between atoms: _480  and  _482
REMARK  202  A    between atoms: _482  and  _483
REMARK  203  A    between atoms: _482  and  _485
REMARK  204  A    between atoms: _485  and  _486
REMARK  205  A    between atoms: _489  and  _491
REMARK  206  A    between atoms: _491  and  _492
REMARK  207  A    between atoms: _491  and  _494
REMARK  208  A    between atoms: _497  and  _499
REMARK  209  A    between atoms: _499  and  _500
REMARK  210  A    between atoms: _499  and  _502
REMARK  211  A    between atoms: _502  and  _503
REMARK  212  A    between atoms: _506  and  _508
REMARK  213  A    between atoms: _508  and  _509
REMARK  214  A    between atoms: _508  and  _511
REMARK  215  A    between atoms: _511  and  _512
REMARK  216  A    between atoms: _516  and  _517
REMARK  217  A    between atoms: _522  and  _524
REMARK  218  A    between atoms: _524  and  _525
REMARK  219  A    between atoms: _524  and  _527
REMARK  220  A    between atoms: _527  and  _528
REMARK  221  A    between atoms: _531  and  _533
REMARK  222  A    between atoms: _533  and  _534
REMARK  223  A    between atoms: _533  and  _536
REMARK  224  A    between atoms: _536  and  _537
REMARK  225  A    between atoms: _542  and  _544
REMARK  226  A    between atoms: _544  and  _545
REMARK  227  A    between atoms: _544  and  _547
REMARK  228  A    between atoms: _550  and  _552
REMARK  229  A    between atoms: _552  and  _553
REMARK  230  A    between atoms: _552  and  _555
REMARK  231  A    between atoms: _555  and  _556
REMARK  232  A    between atoms: _559  and  _561
REMARK  233  A    between atoms: _561  and  _562
REMARK  234  A    between atoms: _564  and  _566
REMARK  235  A    between atoms: _566  and  _567
REMARK  236  A    between atoms: _566  and  _569
REMARK  237  A    between atoms: _569  and  _570
REMARK  238  A    between atoms: _570  and  _571
REMARK  239  A    between atoms: _571  and  _572
REMARK                            x       y       z     vdW  Elec       q    Type
REMARK                         _______ _______ _______ _____ _____    ______ ____
ROOT
ATOM      1  O   HOH     1      22.442  15.846   4.646  0.00  0.00    +0.000 OA
ENDROOT
TORSDOF 0
REMARK  Name = ../refined-set-2016/4a6b/4a6b_pocket.pdb
REMARK  239 active torsions:
REMARK  status: ('A' for Active; 'I' for Inactive)
REMARK    1  A    between atoms: _1  and  _3
REMARK    2  A    between atoms: _3  and  _4
REMARK    3  A    between atoms: _3  and  _6
REMARK    4  A    between atoms: _6  and  _7
REMARK    5  A    between atoms: _7  and  _8
REMARK    6  A    between atoms: _8  and  _9
REMARK    7  A    between atoms: _18  and  _20
REMARK    8  A    between atoms: _20  and  _21
REMARK    9  A    between atoms: _20  and  _23
REMARK   10  A    between atoms: _23  and  _24
REMARK   11  A    between atoms: _27  and  _29
REMARK   12  A    between atoms: _29  and  _30
REMARK   13  A    between atoms: _29  and  _32
REMARK   14  A    between atoms: _32  and  _33
REMARK   15  A    between atoms: _36  and  _38
REMARK   16  A    between atoms: _38  and  _39
REMARK   17  A    between atoms: _38  and  _41
REMARK   18  A    between atoms: _41  and  _42
REMARK   19  A    between atoms: _45  and  _47
REMARK   20  A    between atoms: _47  and  _48
REMARK   21  A    between atoms: _47  and  _50
REMARK   22  A    between atoms: _50  and  _51
REMARK   23  A    between atoms: _54  and  _56
REMARK   24  A    between atoms: _56  and  _57
REMARK   25  A    between atoms: _59  and  _61
REMARK   26  A    between atoms: _61  and  _62
REMARK   27  A    between atoms: _65  and  _67
REMARK   28  A    between atoms: _67  and  _68
REMARK   29  A    between atoms: _67  and  _70
REMARK   30  A    between atoms: _70  and  _71
REMARK   31  A    between atoms: _74  and  _76
REMARK   32  A    between atoms: _76  and  _77
REMARK   33  A    between atoms: _76  and  _79
REMARK   34  A    between atoms: _79  and  _80
REMARK   35  A    between atoms: _83  and  _85
REMARK   36  A    between atoms: _85  and  _86
REMARK   37  A    between atoms: _85  and  _88
REMARK   38  A    between atoms: _88  and  _89
REMARK   39  A    between atoms: _92  and  _94
REMARK   40  A    between atoms: _94  and  _95
REMARK   41  A    between atoms: _94  and  _97
REMARK   42  A    between atoms: _100  and  _102
REMARK   43  A    between atoms: _102  and  _103
REMARK   44  A    between atoms: _102  and  _105
REMARK   45  A    between atoms: _105  and  _106
REMARK   46  A    between atoms: _106  and  _107
REMARK   47  A    between atoms: _107  and  _108
REMARK   48  A    between atoms: _108  and  _109
REMARK   49  A    between atoms: _113  and  _115
REMARK   50  A    between atoms: _115  and  _116
REMARK   51  A    between atoms: _115  and  _118
REMARK   52  A    between atoms: _118  and  _119
REMARK   53  A    between atoms: _119  and  _120
REMARK   54  A    between atoms: _122  and  _124
REMARK   55  A    between atoms: _124  and  _125
REMARK   56  A    between atoms: _124  and  _127
REMARK   57  A    between atoms: _127  and  _128
REMARK   58  A    between atoms: _131  and  _133
REMARK   59  A    between atoms: _133  and  _134
REMARK   60  A    between atoms: _136  and  _138
REMARK   61  A    between atoms: _138  and  _139
REMARK   62  A    between atoms: _141  and  _143
REMARK   63  A    between atoms: _143  and  _144
REMARK   64  A    between atoms: _143  and  _146
REMARK   65  A    between atoms: _146  and  _147
REMARK   66  A    between atoms: _150  and  _152
REMARK   67  A    between atoms: _152  and  _153
REMARK   68  A    between atoms: _155  and  _157
REMARK   69  A    between atoms: _157  and  _158
REMARK   70  A    between atoms: _160  and  _162
REMARK   71  A    between atoms: _162  and  _163
REMARK   72  A    between atoms: _162  and  _165
REMARK   73  A    between atoms: _165  and  _166
REMARK   74  A    between atoms: _172  and  _174
REMARK   75  A    between atoms: _174  and  _175
REMARK   76  A    between atoms: _174  and  _177
REMARK   77  A    between atoms: _177  and  _178
REMARK   78  A    between atoms: _181  and  _183
REMARK   79  A    between atoms: _183  and  _184
REMARK   80  A    between atoms: _183  and  _186
REMARK   81  A    between atoms: _189  and  _191
REMARK   82  A    between atoms: _191  and  _192
REMARK   83  A    between atoms: _191  and  _194
REMARK   84  A    between atoms: _194  and  _195
REMARK   85  A    between atoms: _198  and  _200
REMARK   86  A    between atoms: _200  and  _201
REMARK   87  A    between atoms: _200  and  _203
REMARK   88  A    between atoms: _203  and  _204
REMARK   89  A    between atoms: _208  and  _209
REMARK   90  A    between atoms: _214  and  _216
REMARK   91  A    between atoms: _216  and  _217
REMARK   92  A    between atoms: _216  and  _219
REMARK   93  A    between atoms: _219  and  _220
REMARK   94  A    between atoms: _223  and  _225
REMARK   95  A    between atoms: _225  and  _226
REMARK   96  A    between atoms: _225  and  _228
REMARK   97  A    between atoms: _228  and  _229
REMARK   98  A    between atoms: _234  and  _236
REMARK   99  A    between atoms: _236  and  _237
REMARK  100  A    between atoms: _236  and  _239
REMARK  101  A    between atoms: _242  and  _244
REMARK  102  A    between atoms: _244  and  _245
REMARK  103  A    between atoms: _244  and  _247
REMARK  104  A    between atoms: _247  and  _248
REMARK  105  A    between atoms: _251  and  _253
REMARK  106  A    between atoms: _253  and  _254
REMARK  107  A    between atoms: _256  and  _258
REMARK  108  A    between atoms: _258  and  _259
REMARK  109  A    between atoms: _258  and  _261
REMARK  110  A    between atoms: _261  and  _262
REMARK  111  A    between atoms: _262  and  _263
REMARK  112  A    between atoms: _263  and  _264
REMARK  113  A    between atoms: _273  and  _275
REMARK  114  A    between atoms: _275  and  _276
REMARK  115  A    between atoms: _275  and  _278
REMARK  116  A    between atoms: _278  and  _279
REMARK  117  A    between atoms: _284  and  _286
REMARK  118  A    between atoms: _286  and  _287
REMARK  119  A    between atoms: _286  and  _289
REMARK  120  A    between atoms: _289  and  _290
REMARK  121  A    between atoms: _290  and  _291
REMARK  122  A    between atoms: _291  and  _292
REMARK  123  A    between atoms: _301  and  _303
REMARK  124  A    between atoms: _303  and  _304
REMARK  125  A    between atoms: _303  and  _306
REMARK  126  A    between atoms: _306  and  _307
REMARK  127  A    between atoms: _310  and  _312
REMARK  128  A    between atoms: _312  and  _313
REMARK  129  A    between atoms: _316  and  _318
REMARK  130  A    between atoms: _318  and  _319
REMARK  131  A    between atoms: _318  and  _321
REMARK  132  A    between atoms: _321  and  _322
REMARK  133  A    between atoms: _325  and  _327
REMARK  134  A    between atoms: _327  and  _328
REMARK  135  A    between atoms: _327  and  _330
REMARK  136  A    between atoms: _330  and  _331
REMARK  137  A    between atoms: _334  and  _336
REMARK  138  A    between atoms: _336  and  _337
REMARK  139  A    between atoms: _336  and  _339
REMARK  140  A    between atoms: _339  and  _340
REMARK  141  A    between atoms: _343  and  _345
REMARK  142  A    between atoms: _345  and  _346
REMARK  143  A    between atoms: _345  and  _348
REMARK  144  A    between atoms: _348  and  _349
REMARK  145  A    between atoms: _352  and  _354
REMARK  146  A    between atoms: _354  and  _355
REMARK  147  A    between atoms: _357  and  _359
REMARK  148  A    between atoms: _359  and  _360
REMARK  149  A    between atoms: _363  and  _365
REMARK  150  A    between atoms: _365  and  _366
REMARK  151  A    between atoms: _365  and  _368
REMARK  152  A    between atoms: _368  and  _369
REMARK  153  A    between atoms: _372  and  _374
REMARK  154  A    between atoms: _374  and  _375
REMARK  155  A    between atoms: _374  and  _377
REMARK  156  A    between atoms: _377  and  _378
REMARK  157  A    between atoms: _381  and  _383
REMARK  158  A    between atoms: _383  and  _384
REMARK  159  A    between atoms: _383  and  _386
REMARK  160  A    between atoms: _386  and  _387
REMARK  161  A    between atoms: _390  and  _392
REMARK  162  A    between atoms: _392  and  _393
REMARK  163  A    between atoms: _392  and  _395
REMARK  164  A    between atoms: _398  and  _400
REMARK  165  A    between atoms: _400  and  _401
REMARK  166  A    between atoms: _400  and  _403
REMARK  167  A    between atoms: _403  and  _404
REMARK  168  A    between atoms: _404  and  _405
REMARK  169  A    between atoms: _408  and  _410
REMARK  170  A    between atoms: _410  and  _411
REMARK  171  A    between atoms: _410  and  _413
REMARK  172  A    between atoms: _413  and  _414
REMARK  173  A    between atoms: _414  and  _415
REMARK  174  A    between atoms: _415  and  _416
REMARK  175  A    between atoms: _416  and  _417
REMARK  176  A    between atoms: _421  and  _423
REMARK  177  A    between atoms: _423  and  _424
REMARK  178  A    between atoms: _423  and  _426
REMARK  179  A    between atoms: _426  and  _427
REMARK  180  A    between atoms: _427  and  _428
REMARK  181  A    between atoms: _430  and  _432
REMARK  182  A    between atoms: _432  and  _433
REMARK  183  A    between atoms: _432  and  _435
REMARK  184  A    between atoms: _435  and  _436
REMARK  185  A    between atoms: _439  and  _441
REMARK  186  A    between atoms: _441  and  _442
REMARK  187  A    between atoms: _444  and  _446
REMARK  188  A    between atoms: _446  and  _447
REMARK  189  A    between atoms: _449  and  _451
REMARK  190  A    between atoms: _451  and  _452
REMARK  191  A    between atoms: _451  and  _454
REMARK  192  A    between atoms: _454  and  _455
REMARK  193  A    between atoms: _458  and  _460
REMARK  194  A    between atoms: _460  and  _461
REMARK  195  A    between atoms: _463  and  _465
REMARK  196  A    between atoms: _465  and  _466
REMARK  197  A    between atoms: _468  and  _470
REMARK  198  A    between atoms: _470  and  _471
REMARK  199  A    between atoms: _470  and  _473
REMARK  200  A    between atoms: _473  and  _474
REMARK  201  A    between atoms: _480  and  _482
REMARK  202  A    between atoms: _482  and  _483
REMARK  203  A    between atoms: _482  and  _485
REMARK  204  A    between atoms: _485  and  _486
REMARK  205  A    between atoms: _489  and  _491
REMARK  206  A    between atoms: _491  and  _492
REMARK  207  A    between atoms: _491  and  _494
REMARK  208  A    between atoms: _497  and  _499
REMARK  209  A    between atoms: _499  and  _500
REMARK  210  A    between atoms: _499  and  _502
REMARK  211  A    between atoms: _502  and  _503
REMARK  212  A    between atoms: _506  and  _508
REMARK  213  A    between atoms: _508  and  _509
REMARK  214  A    between atoms: _508  and  _511
REMARK  215  A    between atoms: _511  and  _512
REMARK  216  A    between atoms: _516  and  _517
REMARK  217  A    between atoms: _522  and  _524
REMARK  218  A    between atoms: _524  and  _525
REMARK  219  A    between atoms: _524  and  _527
REMARK  220  A    between atoms: _527  and  _528
REMARK  221  A    between atoms: _531  and  _533
REMARK  222  A    between atoms: _533  and  _534
REMARK  223  A    between atoms: _533  and  _536
REMARK  224  A    between atoms: _536  and  _537
REMARK  225  A    between atoms: _542  and  _544
REMARK  226  A    between atoms: _544  and  _545
REMARK  227  A    between atoms: _544  and  _547
REMARK  228  A    between atoms: _550  and  _552
REMARK  229  A    between atoms: _552  and  _553
REMARK  230  A    between atoms: _552  and  _555
REMARK  231  A    between atoms: _555  and  _556
REMARK  232  A    between atoms: _559  and  _561
REMARK  233  A    between atoms: _561  and  _562
REMARK  234  A    between atoms: _564  and  _566
REMARK  235  A    between atoms: _566  and  _567
REMARK  236  A    between atoms: _566  and  _569
REMARK  237  A    between atoms: _569  and  _570
REMARK  238  A    between atoms: _570  and  _571
REMARK  239  A    between atoms: _571  and  _572
REMARK                            x       y       z     vdW  Elec       q    Type
REMARK                         _______ _______ _______ _____ _____    ______ ____
ROOT
ATOM      1  O   HOH     1      22.311  15.694  -2.369  0.00  0.00    +0.000 OA
ENDROOT
TORSDOF 0
REMARK  Name = ../refined-set-2016/4a6b/4a6b_pocket.pdb
REMARK  239 active torsions:
REMARK  status: ('A' for Active; 'I' for Inactive)
REMARK    1  A    between atoms: _1  and  _3
REMARK    2  A    between atoms: _3  and  _4
REMARK    3  A    between atoms: _3  and  _6
REMARK    4  A    between atoms: _6  and  _7
REMARK    5  A    between atoms: _7  and  _8
REMARK    6  A    between atoms: _8  and  _9
REMARK    7  A    between atoms: _18  and  _20
REMARK    8  A    between atoms: _20  and  _21
REMARK    9  A    between atoms: _20  and  _23
REMARK   10  A    between atoms: _23  and  _24
REMARK   11  A    between atoms: _27  and  _29
REMARK   12  A    between atoms: _29  and  _30
REMARK   13  A    between atoms: _29  and  _32
REMARK   14  A    between atoms: _32  and  _33
REMARK   15  A    between atoms: _36  and  _38
REMARK   16  A    between atoms: _38  and  _39
REMARK   17  A    between atoms: _38  and  _41
REMARK   18  A    between atoms: _41  and  _42
REMARK   19  A    between atoms: _45  and  _47
REMARK   20  A    between atoms: _47  and  _48
REMARK   21  A    between atoms: _47  and  _50
REMARK   22  A    between atoms: _50  and  _51
REMARK   23  A    between atoms: _54  and  _56
REMARK   24  A    between atoms: _56  and  _57
REMARK   25  A    between atoms: _59  and  _61
REMARK   26  A    between atoms: _61  and  _62
REMARK   27  A    between atoms: _65  and  _67
REMARK   28  A    between atoms: _67  and  _68
REMARK   29  A    between atoms: _67  and  _70
REMARK   30  A    between atoms: _70  and  _71
REMARK   31  A    between atoms: _74  and  _76
REMARK   32  A    between atoms: _76  and  _77
REMARK   33  A    between atoms: _76  and  _79
REMARK   34  A    between atoms: _79  and  _80
REMARK   35  A    between atoms: _83  and  _85
REMARK   36  A    between atoms: _85  and  _86
REMARK   37  A    between atoms: _85  and  _88
REMARK   38  A    between atoms: _88  and  _89
REMARK   39  A    between atoms: _92  and  _94
REMARK   40  A    between atoms: _94  and  _95
REMARK   41  A    between atoms: _94  and  _97
REMARK   42  A    between atoms: _100  and  _102
REMARK   43  A    between atoms: _102  and  _103
REMARK   44  A    between atoms: _102  and  _105
REMARK   45  A    between atoms: _105  and  _106
REMARK   46  A    between atoms: _106  and  _107
REMARK   47  A    between atoms: _107  and  _108
REMARK   48  A    between atoms: _108  and  _109
REMARK   49  A    between atoms: _113  and  _115
REMARK   50  A    between atoms: _115  and  _116
REMARK   51  A    between atoms: _115  and  _118
REMARK   52  A    between atoms: _118  and  _119
REMARK   53  A    between atoms: _119  and  _120
REMARK   54  A    between atoms: _122  and  _124
REMARK   55  A    between atoms: _124  and  _125
REMARK   56  A    between atoms: _124  and  _127
REMARK   57  A    between atoms: _127  and  _128
REMARK   58  A    between atoms: _131  and  _133
REMARK   59  A    between atoms: _133  and  _134
REMARK   60  A    between atoms: _136  and  _138
REMARK   61  A    between atoms: _138  and  _139
REMARK   62  A    between atoms: _141  and  _143
REMARK   63  A    between atoms: _143  and  _144
REMARK   64  A    between atoms: _143  and  _146
REMARK   65  A    between atoms: _146  and  _147
REMARK   66  A    between atoms: _150  and  _152
REMARK   67  A    between atoms: _152  and  _153
REMARK   68  A    between atoms: _155  and  _157
REMARK   69  A    between atoms: _157  and  _158
REMARK   70  A    between atoms: _160  and  _162
REMARK   71  A    between atoms: _162  and  _163
REMARK   72  A    between atoms: _162  and  _165
REMARK   73  A    between atoms: _165  and  _166
REMARK   74  A    between atoms: _172  and  _174
REMARK   75  A    between atoms: _174  and  _175
REMARK   76  A    between atoms: _174  and  _177
REMARK   77  A    between atoms: _177  and  _178
REMARK   78  A    between atoms: _181  and  _183
REMARK   79  A    between atoms: _183  and  _184
REMARK   80  A    between atoms: _183  and  _186
REMARK   81  A    between atoms: _189  and  _191
REMARK   82  A    between atoms: _191  and  _192
REMARK   83  A    between atoms: _191  and  _194
REMARK   84  A    between atoms: _194  and  _195
REMARK   85  A    between atoms: _198  and  _200
REMARK   86  A    between atoms: _200  and  _201
REMARK   87  A    between atoms: _200  and  _203
REMARK   88  A    between atoms: _203  and  _204
REMARK   89  A    between atoms: _208  and  _209
REMARK   90  A    between atoms: _214  and  _216
REMARK   91  A    between atoms: _216  and  _217
REMARK   92  A    between atoms: _216  and  _219
REMARK   93  A    between atoms: _219  and  _220
REMARK   94  A    between atoms: _223  and  _225
REMARK   95  A    between atoms: _225  and  _226
REMARK   96  A    between atoms: _225  and  _228
REMARK   97  A    between atoms: _228  and  _229
REMARK   98  A    between atoms: _234  and  _236
REMARK   99  A    between atoms: _236  and  _237
REMARK  100  A    between atoms: _236  and  _239
REMARK  101  A    between atoms: _242  and  _244
REMARK  102  A    between atoms: _244  and  _245
REMARK  103  A    between atoms: _244  and  _247
REMARK  104  A    between atoms: _247  and  _248
REMARK  105  A    between atoms: _251  and  _253
REMARK  106  A    between atoms: _253  and  _254
REMARK  107  A    between atoms: _256  and  _258
REMARK  108  A    between atoms: _258  and  _259
REMARK  109  A    between atoms: _258  and  _261
REMARK  110  A    between atoms: _261  and  _262
REMARK  111  A    between atoms: _262  and  _263
REMARK  112  A    between atoms: _263  and  _264
REMARK  113  A    between atoms: _273  and  _275
REMARK  114  A    between atoms: _275  and  _276
REMARK  115  A    between atoms: _275  and  _278
REMARK  116  A    between atoms: _278  and  _279
REMARK  117  A    between atoms: _284  and  _286
REMARK  118  A    between atoms: _286  and  _287
REMARK  119  A    between atoms: _286  and  _289
REMARK  120  A    between atoms: _289  and  _290
REMARK  121  A    between atoms: _290  and  _291
REMARK  122  A    between atoms: _291  and  _292
REMARK  123  A    between atoms: _301  and  _303
REMARK  124  A    between atoms: _303  and  _304
REMARK  125  A    between atoms: _303  and  _306
REMARK  126  A    between atoms: _306  and  _307
REMARK  127  A    between atoms: _310  and  _312
REMARK  128  A    between atoms: _312  and  _313
REMARK  129  A    between atoms: _316  and  _318
REMARK  130  A    between atoms: _318  and  _319
REMARK  131  A    between atoms: _318  and  _321
REMARK  132  A    between atoms: _321  and  _322
REMARK  133  A    between atoms: _325  and  _327
REMARK  134  A    between atoms: _327  and  _328
REMARK  135  A    between atoms: _327  and  _330
REMARK  136  A    between atoms: _330  and  _331
REMARK  137  A    between atoms: _334  and  _336
REMARK  138  A    between atoms: _336  and  _337
REMARK  139  A    between atoms: _336  and  _339
REMARK  140  A    between atoms: _339  and  _340
REMARK  141  A    between atoms: _343  and  _345
REMARK  142  A    between atoms: _345  and  _346
REMARK  143  A    between atoms: _345  and  _348
REMARK  144  A    between atoms: _348  and  _349
REMARK  145  A    between atoms: _352  and  _354
REMARK  146  A    between atoms: _354  and  _355
REMARK  147  A    between atoms: _357  and  _359
REMARK  148  A    between atoms: _359  and  _360
REMARK  149  A    between atoms: _363  and  _365
REMARK  150  A    between atoms: _365  and  _366
REMARK  151  A    between atoms: _365  and  _368
REMARK  152  A    between atoms: _368  and  _369
REMARK  153  A    between atoms: _372  and  _374
REMARK  154  A    between atoms: _374  and  _375
REMARK  155  A    between atoms: _374  and  _377
REMARK  156  A    between atoms: _377  and  _378
REMARK  157  A    between atoms: _381  and  _383
REMARK  158  A    between atoms: _383  and  _384
REMARK  159  A    between atoms: _383  and  _386
REMARK  160  A    between atoms: _386  and  _387
REMARK  161  A    between atoms: _390  and  _392
REMARK  162  A    between atoms: _392  and  _393
REMARK  163  A    between atoms: _392  and  _395
REMARK  164  A    between atoms: _398  and  _400
REMARK  165  A    between atoms: _400  and  _401
REMARK  166  A    between atoms: _400  and  _403
REMARK  167  A    between atoms: _403  and  _404
REMARK  168  A    between atoms: _404  and  _405
REMARK  169  A    between atoms: _408  and  _410
REMARK  170  A    between atoms: _410  and  _411
REMARK  171  A    between atoms: _410  and  _413
REMARK  172  A    between atoms: _413  and  _414
REMARK  173  A    between atoms: _414  and  _415
REMARK  174  A    between atoms: _415  and  _416
REMARK  175  A    between atoms: _416  and  _417
REMARK  176  A    between atoms: _421  and  _423
REMARK  177  A    between atoms: _423  and  _424
REMARK  178  A    between atoms: _423  and  _426
REMARK  179  A    between atoms: _426  and  _427
REMARK  180  A    between atoms: _427  and  _428
REMARK  181  A    between atoms: _430  and  _432
REMARK  182  A    between atoms: _432  and  _433
REMARK  183  A    between atoms: _432  and  _435
REMARK  184  A    between atoms: _435  and  _436
REMARK  185  A    between atoms: _439  and  _441
REMARK  186  A    between atoms: _441  and  _442
REMARK  187  A    between atoms: _444  and  _446
REMARK  188  A    between atoms: _446  and  _447
REMARK  189  A    between atoms: _449  and  _451
REMARK  190  A    between atoms: _451  and  _452
REMARK  191  A    between atoms: _451  and  _454
REMARK  192  A    between atoms: _454  and  _455
REMARK  193  A    between atoms: _458  and  _460
REMARK  194  A    between atoms: _460  and  _461
REMARK  195  A    between atoms: _463  and  _465
REMARK  196  A    between atoms: _465  and  _466
REMARK  197  A    between atoms: _468  and  _470
REMARK  198  A    between atoms: _470  and  _471
REMARK  199  A    between atoms: _470  and  _473
REMARK  200  A    between atoms: _473  and  _474
REMARK  201  A    between atoms: _480  and  _482
REMARK  202  A    between atoms: _482  and  _483
REMARK  203  A    between atoms: _482  and  _485
REMARK  204  A    between atoms: _485  and  _486
REMARK  205  A    between atoms: _489  and  _491
REMARK  206  A    between atoms: _491  and  _492
REMARK  207  A    between atoms: _491  and  _494
REMARK  208  A    between atoms: _497  and  _499
REMARK  209  A    between atoms: _499  and  _500
REMARK  210  A    between atoms: _499  and  _502
REMARK  211  A    between atoms: _502  and  _503
REMARK  212  A    between atoms: _506  and  _508
REMARK  213  A    between atoms: _508  and  _509
REMARK  214  A    between atoms: _508  and  _511
REMARK  215  A    between atoms: _511  and  _512
REMARK  216  A    between atoms: _516  and  _517
REMARK  217  A    between atoms: _522  and  _524
REMARK  218  A    between atoms: _524  and  _525
REMARK  219  A    between atoms: _524  and  _527
REMARK  220  A    between atoms: _527  and  _528
REMARK  221  A    between atoms: _531  and  _533
REMARK  222  A    between atoms: _533  and  _534
REMARK  223  A    between atoms: _533  and  _536
REMARK  224  A    between atoms: _536  and  _537
REMARK  225  A    between atoms: _542  and  _544
REMARK  226  A    between atoms: _544  and  _545
REMARK  227  A    between atoms: _544  and  _547
REMARK  228  A    between atoms: _550  and  _552
REMARK  229  A    between atoms: _552  and  _553
REMARK  230  A    between atoms: _552  and  _555
REMARK  231  A    between atoms: _555  and  _556
REMARK  232  A    between atoms: _559  and  _561
REMARK  233  A    between atoms: _561  and  _562
REMARK  234  A    between atoms: _564  and  _566
REMARK  235  A    between atoms: _566  and  _567
REMARK  236  A    between atoms: _566  and  _569
REMARK  237  A    between atoms: _569  and  _570
REMARK  238  A    between atoms: _570  and  _571
REMARK  239  A    between atoms: _571  and  _572
REMARK                            x       y       z     vdW  Elec       q    Type
REMARK                         _______ _______ _______ _____ _____    ______ ____
ROOT
ATOM      1  O   HOH     1      24.214  15.768   1.382  0.00  0.00    +0.000 OA
ENDROOT
TORSDOF 0
REMARK  Name = ../refined-set-2016/4a6b/4a6b_pocket.pdb
REMARK  239 active torsions:
REMARK  status: ('A' for Active; 'I' for Inactive)
REMARK    1  A    between atoms: _1  and  _3
REMARK    2  A    between atoms: _3  and  _4
REMARK    3  A    between atoms: _3  and  _6
REMARK    4  A    between atoms: _6  and  _7
REMARK    5  A    between atoms: _7  and  _8
REMARK    6  A    between atoms: _8  and  _9
REMARK    7  A    between atoms: _18  and  _20
REMARK    8  A    between atoms: _20  and  _21
REMARK    9  A    between atoms: _20  and  _23
REMARK   10  A    between atoms: _23  and  _24
REMARK   11  A    between atoms: _27  and  _29
REMARK   12  A    between atoms: _29  and  _30
REMARK   13  A    between atoms: _29  and  _32
REMARK   14  A    between atoms: _32  and  _33
REMARK   15  A    between atoms: _36  and  _38
REMARK   16  A    between atoms: _38  and  _39
REMARK   17  A    between atoms: _38  and  _41
REMARK   18  A    between atoms: _41  and  _42
REMARK   19  A    between atoms: _45  and  _47
REMARK   20  A    between atoms: _47  and  _48
REMARK   21  A    between atoms: _47  and  _50
REMARK   22  A    between atoms: _50  and  _51
REMARK   23  A    between atoms: _54  and  _56
REMARK   24  A    between atoms: _56  and  _57
REMARK   25  A    between atoms: _59  and  _61
REMARK   26  A    between atoms: _61  and  _62
REMARK   27  A    between atoms: _65  and  _67
REMARK   28  A    between atoms: _67  and  _68
REMARK   29  A    between atoms: _67  and  _70
REMARK   30  A    between atoms: _70  and  _71
REMARK   31  A    between atoms: _74  and  _76
REMARK   32  A    between atoms: _76  and  _77
REMARK   33  A    between atoms: _76  and  _79
REMARK   34  A    between atoms: _79  and  _80
REMARK   35  A    between atoms: _83  and  _85
REMARK   36  A    between atoms: _85  and  _86
REMARK   37  A    between atoms: _85  and  _88
REMARK   38  A    between atoms: _88  and  _89
REMARK   39  A    between atoms: _92  and  _94
REMARK   40  A    between atoms: _94  and  _95
REMARK   41  A    between atoms: _94  and  _97
REMARK   42  A    between atoms: _100  and  _102
REMARK   43  A    between atoms: _102  and  _103
REMARK   44  A    between atoms: _102  and  _105
REMARK   45  A    between atoms: _105  and  _106
REMARK   46  A    between atoms: _106  and  _107
REMARK   47  A    between atoms: _107  and  _108
REMARK   48  A    between atoms: _108  and  _109
REMARK   49  A    between atoms: _113  and  _115
REMARK   50  A    between atoms: _115  and  _116
REMARK   51  A    between atoms: _115  and  _118
REMARK   52  A    between atoms: _118  and  _119
REMARK   53  A    between atoms: _119  and  _120
REMARK   54  A    between atoms: _122  and  _124
REMARK   55  A    between atoms: _124  and  _125
REMARK   56  A    between atoms: _124  and  _127
REMARK   57  A    between atoms: _127  and  _128
REMARK   58  A    between atoms: _131  and  _133
REMARK   59  A    between atoms: _133  and  _134
REMARK   60  A    between atoms: _136  and  _138
REMARK   61  A    between atoms: _138  and  _139
REMARK   62  A    between atoms: _141  and  _143
REMARK   63  A    between atoms: _143  and  _144
REMARK   64  A    between atoms: _143  and  _146
REMARK   65  A    between atoms: _146  and  _147
REMARK   66  A    between atoms: _150  and  _152
REMARK   67  A    between atoms: _152  and  _153
REMARK   68  A    between atoms: _155  and  _157
REMARK   69  A    between atoms: _157  and  _158
REMARK   70  A    between atoms: _160  and  _162
REMARK   71  A    between atoms: _162  and  _163
REMARK   72  A    between atoms: _162  and  _165
REMARK   73  A    between atoms: _165  and  _166
REMARK   74  A    between atoms: _172  and  _174
REMARK   75  A    between atoms: _174  and  _175
REMARK   76  A    between atoms: _174  and  _177
REMARK   77  A    between atoms: _177  and  _178
REMARK   78  A    between atoms: _181  and  _183
REMARK   79  A    between atoms: _183  and  _184
REMARK   80  A    between atoms: _183  and  _186
REMARK   81  A    between atoms: _189  and  _191
REMARK   82  A    between atoms: _191  and  _192
REMARK   83  A    between atoms: _191  and  _194
REMARK   84  A    between atoms: _194  and  _195
REMARK   85  A    between atoms: _198  and  _200
REMARK   86  A    between atoms: _200  and  _201
REMARK   87  A    between atoms: _200  and  _203
REMARK   88  A    between atoms: _203  and  _204
REMARK   89  A    between atoms: _208  and  _209
REMARK   90  A    between atoms: _214  and  _216
REMARK   91  A    between atoms: _216  and  _217
REMARK   92  A    between atoms: _216  and  _219
REMARK   93  A    between atoms: _219  and  _220
REMARK   94  A    between atoms: _223  and  _225
REMARK   95  A    between atoms: _225  and  _226
REMARK   96  A    between atoms: _225  and  _228
REMARK   97  A    between atoms: _228  and  _229
REMARK   98  A    between atoms: _234  and  _236
REMARK   99  A    between atoms: _236  and  _237
REMARK  100  A    between atoms: _236  and  _239
REMARK  101  A    between atoms: _242  and  _244
REMARK  102  A    between atoms: _244  and  _245
REMARK  103  A    between atoms: _244  and  _247
REMARK  104  A    between atoms: _247  and  _248
REMARK  105  A    between atoms: _251  and  _253
REMARK  106  A    between atoms: _253  and  _254
REMARK  107  A    between atoms: _256  and  _258
REMARK  108  A    between atoms: _258  and  _259
REMARK  109  A    between atoms: _258  and  _261
REMARK  110  A    between atoms: _261  and  _262
REMARK  111  A    between atoms: _262  and  _263
REMARK  112  A    between atoms: _263  and  _264
REMARK  113  A    between atoms: _273  and  _275
REMARK  114  A    between atoms: _275  and  _276
REMARK  115  A    between atoms: _275  and  _278
REMARK  116  A    between atoms: _278  and  _279
REMARK  117  A    between atoms: _284  and  _286
REMARK  118  A    between atoms: _286  and  _287
REMARK  119  A    between atoms: _286  and  _289
REMARK  120  A    between atoms: _289  and  _290
REMARK  121  A    between atoms: _290  and  _291
REMARK  122  A    between atoms: _291  and  _292
REMARK  123  A    between atoms: _301  and  _303
REMARK  124  A    between atoms: _303  and  _304
REMARK  125  A    between atoms: _303  and  _306
REMARK  126  A    between atoms: _306  and  _307
REMARK  127  A    between atoms: _310  and  _312
REMARK  128  A    between atoms: _312  and  _313
REMARK  129  A    between atoms: _316  and  _318
REMARK  130  A    between atoms: _318  and  _319
REMARK  131  A    between atoms: _318  and  _321
REMARK  132  A    between atoms: _321  and  _322
REMARK  133  A    between atoms: _325  and  _327
REMARK  134  A    between atoms: _327  and  _328
REMARK  135  A    between atoms: _327  and  _330
REMARK  136  A    between atoms: _330  and  _331
REMARK  137  A    between atoms: _334  and  _336
REMARK  138  A    between atoms: _336  and  _337
REMARK  139  A    between atoms: _336  and  _339
REMARK  140  A    between atoms: _339  and  _340
REMARK  141  A    between atoms: _343  and  _345
REMARK  142  A    between atoms: _345  and  _346
REMARK  143  A    between atoms: _345  and  _348
REMARK  144  A    between atoms: _348  and  _349
REMARK  145  A    between atoms: _352  and  _354
REMARK  146  A    between atoms: _354  and  _355
REMARK  147  A    between atoms: _357  and  _359
REMARK  148  A    between atoms: _359  and  _360
REMARK  149  A    between atoms: _363  and  _365
REMARK  150  A    between atoms: _365  and  _366
REMARK  151  A    between atoms: _365  and  _368
REMARK  152  A    between atoms: _368  and  _369
REMARK  153  A    between atoms: _372  and  _374
REMARK  154  A    between atoms: _374  and  _375
REMARK  155  A    between atoms: _374  and  _377
REMARK  156  A    between atoms: _377  and  _378
REMARK  157  A    between atoms: _381  and  _383
REMARK  158  A    between atoms: _383  and  _384
REMARK  159  A    between atoms: _383  and  _386
REMARK  160  A    between atoms: _386  and  _387
REMARK  161  A    between atoms: _390  and  _392
REMARK  162  A    between atoms: _392  and  _393
REMARK  163  A    between atoms: _392  and  _395
REMARK  164  A    between atoms: _398  and  _400
REMARK  165  A    between atoms: _400  and  _401
REMARK  166  A    between atoms: _400  and  _403
REMARK  167  A    between atoms: _403  and  _404
REMARK  168  A    between atoms: _404  and  _405
REMARK  169  A    between atoms: _408  and  _410
REMARK  170  A    between atoms: _410  and  _411
REMARK  171  A    between atoms: _410  and  _413
REMARK  172  A    between atoms: _413  and  _414
REMARK  173  A    between atoms: _414  and  _415
REMARK  174  A    between atoms: _415  and  _416
REMARK  175  A    between atoms: _416  and  _417
REMARK  176  A    between atoms: _421  and  _423
REMARK  177  A    between atoms: _423  and  _424
REMARK  178  A    between atoms: _423  and  _426
REMARK  179  A    between atoms: _426  and  _427
REMARK  180  A    between atoms: _427  and  _428
REMARK  181  A    between atoms: _430  and  _432
REMARK  182  A    between atoms: _432  and  _433
REMARK  183  A    between atoms: _432  and  _435
REMARK  184  A    between atoms: _435  and  _436
REMARK  185  A    between atoms: _439  and  _441
REMARK  186  A    between atoms: _441  and  _442
REMARK  187  A    between atoms: _444  and  _446
REMARK  188  A    between atoms: _446  and  _447
REMARK  189  A    between atoms: _449  and  _451
REMARK  190  A    between atoms: _451  and  _452
REMARK  191  A    between atoms: _451  and  _454
REMARK  192  A    between atoms: _454  and  _455
REMARK  193  A    between atoms: _458  and  _460
REMARK  194  A    between atoms: _460  and  _461
REMARK  195  A    between atoms: _463  and  _465
REMARK  196  A    between atoms: _465  and  _466
REMARK  197  A    between atoms: _468  and  _470
REMARK  198  A    between atoms: _470  and  _471
REMARK  199  A    between atoms: _470  and  _473
REMARK  200  A    between atoms: _473  and  _474
REMARK  201  A    between atoms: _480  and  _482
REMARK  202  A    between atoms: _482  and  _483
REMARK  203  A    between atoms: _482  and  _485
REMARK  204  A    between atoms: _485  and  _486
REMARK  205  A    between atoms: _489  and  _491
REMARK  206  A    between atoms: _491  and  _492
REMARK  207  A    between atoms: _491  and  _494
REMARK  208  A    between atoms: _497  and  _499
REMARK  209  A    between atoms: _499  and  _500
REMARK  210  A    between atoms: _499  and  _502
REMARK  211  A    between atoms: _502  and  _503
REMARK  212  A    between atoms: _506  and  _508
REMARK  213  A    between atoms: _508  and  _509
REMARK  214  A    between atoms: _508  and  _511
REMARK  215  A    between atoms: _511  and  _512
REMARK  216  A    between atoms: _516  and  _517
REMARK  217  A    between atoms: _522  and  _524
REMARK  218  A    between atoms: _524  and  _525
REMARK  219  A    between atoms: _524  and  _527
REMARK  220  A    between atoms: _527  and  _528
REMARK  221  A    between atoms: _531  and  _533
REMARK  222  A    between atoms: _533  and  _534
REMARK  223  A    between atoms: _533  and  _536
REMARK  224  A    between atoms: _536  and  _537
REMARK  225  A    between atoms: _542  and  _544
REMARK  226  A    between atoms: _544  and  _545
REMARK  227  A    between atoms: _544  and  _547
REMARK  228  A    between atoms: _550  and  _552
REMARK  229  A    between atoms: _552  and  _553
REMARK  230  A    between atoms: _552  and  _555
REMARK  231  A    between atoms: _555  and  _556
REMARK  232  A    between atoms: _559  and  _561
REMARK  233  A    between atoms: _561  and  _562
REMARK  234  A    between atoms: _564  and  _566
REMARK  235  A    between atoms: _566  and  _567
REMARK  236  A    between atoms: _566  and  _569
REMARK  237  A    between atoms: _569  and  _570
REMARK  238  A    between atoms: _570  and  _571
REMARK  239  A    between atoms: _571  and  _572
REMARK                            x       y       z     vdW  Elec       q    Type
REMARK                         _______ _______ _______ _____ _____    ______ ____
ROOT
ATOM      1  O   HOH     1      19.739  16.132   3.980  0.00  0.00    +0.000 OA
ENDROOT
TORSDOF 0
REMARK  Name = ../refined-set-2016/4a6b/4a6b_pocket.pdb
REMARK  239 active torsions:
REMARK  status: ('A' for Active; 'I' for Inactive)
REMARK    1  A    between atoms: _1  and  _3
REMARK    2  A    between atoms: _3  and  _4
REMARK    3  A    between atoms: _3  and  _6
REMARK    4  A    between atoms: _6  and  _7
REMARK    5  A    between atoms: _7  and  _8
REMARK    6  A    between atoms: _8  and  _9
REMARK    7  A    between atoms: _18  and  _20
REMARK    8  A    between atoms: _20  and  _21
REMARK    9  A    between atoms: _20  and  _23
REMARK   10  A    between atoms: _23  and  _24
REMARK   11  A    between atoms: _27  and  _29
REMARK   12  A    between atoms: _29  and  _30
REMARK   13  A    between atoms: _29  and  _32
REMARK   14  A    between atoms: _32  and  _33
REMARK   15  A    between atoms: _36  and  _38
REMARK   16  A    between atoms: _38  and  _39
REMARK   17  A    between atoms: _38  and  _41
REMARK   18  A    between atoms: _41  and  _42
REMARK   19  A    between atoms: _45  and  _47
REMARK   20  A    between atoms: _47  and  _48
REMARK   21  A    between atoms: _47  and  _50
REMARK   22  A    between atoms: _50  and  _51
REMARK   23  A    between atoms: _54  and  _56
REMARK   24  A    between atoms: _56  and  _57
REMARK   25  A    between atoms: _59  and  _61
REMARK   26  A    between atoms: _61  and  _62
REMARK   27  A    between atoms: _65  and  _67
REMARK   28  A    between atoms: _67  and  _68
REMARK   29  A    between atoms: _67  and  _70
REMARK   30  A    between atoms: _70  and  _71
REMARK   31  A    between atoms: _74  and  _76
REMARK   32  A    between atoms: _76  and  _77
REMARK   33  A    between atoms: _76  and  _79
REMARK   34  A    between atoms: _79  and  _80
REMARK   35  A    between atoms: _83  and  _85
REMARK   36  A    between atoms: _85  and  _86
REMARK   37  A    between atoms: _85  and  _88
REMARK   38  A    between atoms: _88  and  _89
REMARK   39  A    between atoms: _92  and  _94
REMARK   40  A    between atoms: _94  and  _95
REMARK   41  A    between atoms: _94  and  _97
REMARK   42  A    between atoms: _100  and  _102
REMARK   43  A    between atoms: _102  and  _103
REMARK   44  A    between atoms: _102  and  _105
REMARK   45  A    between atoms: _105  and  _106
REMARK   46  A    between atoms: _106  and  _107
REMARK   47  A    between atoms: _107  and  _108
REMARK   48  A    between atoms: _108  and  _109
REMARK   49  A    between atoms: _113  and  _115
REMARK   50  A    between atoms: _115  and  _116
REMARK   51  A    between atoms: _115  and  _118
REMARK   52  A    between atoms: _118  and  _119
REMARK   53  A    between atoms: _119  and  _120
REMARK   54  A    between atoms: _122  and  _124
REMARK   55  A    between atoms: _124  and  _125
REMARK   56  A    between atoms: _124  and  _127
REMARK   57  A    between atoms: _127  and  _128
REMARK   58  A    between atoms: _131  and  _133
REMARK   59  A    between atoms: _133  and  _134
REMARK   60  A    between atoms: _136  and  _138
REMARK   61  A    between atoms: _138  and  _139
REMARK   62  A    between atoms: _141  and  _143
REMARK   63  A    between atoms: _143  and  _144
REMARK   64  A    between atoms: _143  and  _146
REMARK   65  A    between atoms: _146  and  _147
REMARK   66  A    between atoms: _150  and  _152
REMARK   67  A    between atoms: _152  and  _153
REMARK   68  A    between atoms: _155  and  _157
REMARK   69  A    between atoms: _157  and  _158
REMARK   70  A    between atoms: _160  and  _162
REMARK   71  A    between atoms: _162  and  _163
REMARK   72  A    between atoms: _162  and  _165
REMARK   73  A    between atoms: _165  and  _166
REMARK   74  A    between atoms: _172  and  _174
REMARK   75  A    between atoms: _174  and  _175
REMARK   76  A    between atoms: _174  and  _177
REMARK   77  A    between atoms: _177  and  _178
REMARK   78  A    between atoms: _181  and  _183
REMARK   79  A    between atoms: _183  and  _184
REMARK   80  A    between atoms: _183  and  _186
REMARK   81  A    between atoms: _189  and  _191
REMARK   82  A    between atoms: _191  and  _192
REMARK   83  A    between atoms: _191  and  _194
REMARK   84  A    between atoms: _194  and  _195
REMARK   85  A    between atoms: _198  and  _200
REMARK   86  A    between atoms: _200  and  _201
REMARK   87  A    between atoms: _200  and  _203
REMARK   88  A    between atoms: _203  and  _204
REMARK   89  A    between atoms: _208  and  _209
REMARK   90  A    between atoms: _214  and  _216
REMARK   91  A    between atoms: _216  and  _217
REMARK   92  A    between atoms: _216  and  _219
REMARK   93  A    between atoms: _219  and  _220
REMARK   94  A    between atoms: _223  and  _225
REMARK   95  A    between atoms: _225  and  _226
REMARK   96  A    between atoms: _225  and  _228
REMARK   97  A    between atoms: _228  and  _229
REMARK   98  A    between atoms: _234  and  _236
REMARK   99  A    between atoms: _236  and  _237
REMARK  100  A    between atoms: _236  and  _239
REMARK  101  A    between atoms: _242  and  _244
REMARK  102  A    between atoms: _244  and  _245
REMARK  103  A    between atoms: _244  and  _247
REMARK  104  A    between atoms: _247  and  _248
REMARK  105  A    between atoms: _251  and  _253
REMARK  106  A    between atoms: _253  and  _254
REMARK  107  A    between atoms: _256  and  _258
REMARK  108  A    between atoms: _258  and  _259
REMARK  109  A    between atoms: _258  and  _261
REMARK  110  A    between atoms: _261  and  _262
REMARK  111  A    between atoms: _262  and  _263
REMARK  112  A    between atoms: _263  and  _264
REMARK  113  A    between atoms: _273  and  _275
REMARK  114  A    between atoms: _275  and  _276
REMARK  115  A    between atoms: _275  and  _278
REMARK  116  A    between atoms: _278  and  _279
REMARK  117  A    between atoms: _284  and  _286
REMARK  118  A    between atoms: _286  and  _287
REMARK  119  A    between atoms: _286  and  _289
REMARK  120  A    between atoms: _289  and  _290
REMARK  121  A    between atoms: _290  and  _291
REMARK  122  A    between atoms: _291  and  _292
REMARK  123  A    between atoms: _301  and  _303
REMARK  124  A    between atoms: _303  and  _304
REMARK  125  A    between atoms: _303  and  _306
REMARK  126  A    between atoms: _306  and  _307
REMARK  127  A    between atoms: _310  and  _312
REMARK  128  A    between atoms: _312  and  _313
REMARK  129  A    between atoms: _316  and  _318
REMARK  130  A    between atoms: _318  and  _319
REMARK  131  A    between atoms: _318  and  _321
REMARK  132  A    between atoms: _321  and  _322
REMARK  133  A    between atoms: _325  and  _327
REMARK  134  A    between atoms: _327  and  _328
REMARK  135  A    between atoms: _327  and  _330
REMARK  136  A    between atoms: _330  and  _331
REMARK  137  A    between atoms: _334  and  _336
REMARK  138  A    between atoms: _336  and  _337
REMARK  139  A    between atoms: _336  and  _339
REMARK  140  A    between atoms: _339  and  _340
REMARK  141  A    between atoms: _343  and  _345
REMARK  142  A    between atoms: _345  and  _346
REMARK  143  A    between atoms: _345  and  _348
REMARK  144  A    between atoms: _348  and  _349
REMARK  145  A    between atoms: _352  and  _354
REMARK  146  A    between atoms: _354  and  _355
REMARK  147  A    between atoms: _357  and  _359
REMARK  148  A    between atoms: _359  and  _360
REMARK  149  A    between atoms: _363  and  _365
REMARK  150  A    between atoms: _365  and  _366
REMARK  151  A    between atoms: _365  and  _368
REMARK  152  A    between atoms: _368  and  _369
REMARK  153  A    between atoms: _372  and  _374
REMARK  154  A    between atoms: _374  and  _375
REMARK  155  A    between atoms: _374  and  _377
REMARK  156  A    between atoms: _377  and  _378
REMARK  157  A    between atoms: _381  and  _383
REMARK  158  A    between atoms: _383  and  _384
REMARK  159  A    between atoms: _383  and  _386
REMARK  160  A    between atoms: _386  and  _387
REMARK  161  A    between atoms: _390  and  _392
REMARK  162  A    between atoms: _392  and  _393
REMARK  163  A    between atoms: _392  and  _395
REMARK  164  A    between atoms: _398  and  _400
REMARK  165  A    between atoms: _400  and  _401
REMARK  166  A    between atoms: _400  and  _403
REMARK  167  A    between atoms: _403  and  _404
REMARK  168  A    between atoms: _404  and  _405
REMARK  169  A    between atoms: _408  and  _410
REMARK  170  A    between atoms: _410  and  _411
REMARK  171  A    between atoms: _410  and  _413
REMARK  172  A    between atoms: _413  and  _414
REMARK  173  A    between atoms: _414  and  _415
REMARK  174  A    between atoms: _415  and  _416
REMARK  175  A    between atoms: _416  and  _417
REMARK  176  A    between atoms: _421  and  _423
REMARK  177  A    between atoms: _423  and  _424
REMARK  178  A    between atoms: _423  and  _426
REMARK  179  A    between atoms: _426  and  _427
REMARK  180  A    between atoms: _427  and  _428
REMARK  181  A    between atoms: _430  and  _432
REMARK  182  A    between atoms: _432  and  _433
REMARK  183  A    between atoms: _432  and  _435
REMARK  184  A    between atoms: _435  and  _436
REMARK  185  A    between atoms: _439  and  _441
REMARK  186  A    between atoms: _441  and  _442
REMARK  187  A    between atoms: _444  and  _446
REMARK  188  A    between atoms: _446  and  _447
REMARK  189  A    between atoms: _449  and  _451
REMARK  190  A    between atoms: _451  and  _452
REMARK  191  A    between atoms: _451  and  _454
REMARK  192  A    between atoms: _454  and  _455
REMARK  193  A    between atoms: _458  and  _460
REMARK  194  A    between atoms: _460  and  _461
REMARK  195  A    between atoms: _463  and  _465
REMARK  196  A    between atoms: _465  and  _466
REMARK  197  A    between atoms: _468  and  _470
REMARK  198  A    between atoms: _470  and  _471
REMARK  199  A    between atoms: _470  and  _473
REMARK  200  A    between atoms: _473  and  _474
REMARK  201  A    between atoms: _480  and  _482
REMARK  202  A    between atoms: _482  and  _483
REMARK  203  A    between atoms: _482  and  _485
REMARK  204  A    between atoms: _485  and  _486
REMARK  205  A    between atoms: _489  and  _491
REMARK  206  A    between atoms: _491  and  _492
REMARK  207  A    between atoms: _491  and  _494
REMARK  208  A    between atoms: _497  and  _499
REMARK  209  A    between atoms: _499  and  _500
REMARK  210  A    between atoms: _499  and  _502
REMARK  211  A    between atoms: _502  and  _503
REMARK  212  A    between atoms: _506  and  _508
REMARK  213  A    between atoms: _508  and  _509
REMARK  214  A    between atoms: _508  and  _511
REMARK  215  A    between atoms: _511  and  _512
REMARK  216  A    between atoms: _516  and  _517
REMARK  217  A    between atoms: _522  and  _524
REMARK  218  A    between atoms: _524  and  _525
REMARK  219  A    between atoms: _524  and  _527
REMARK  220  A    between atoms: _527  and  _528
REMARK  221  A    between atoms: _531  and  _533
REMARK  222  A    between atoms: _533  and  _534
REMARK  223  A    between atoms: _533  and  _536
REMARK  224  A    between atoms: _536  and  _537
REMARK  225  A    between atoms: _542  and  _544
REMARK  226  A    between atoms: _544  and  _545
REMARK  227  A    between atoms: _544  and  _547
REMARK  228  A    between atoms: _550  and  _552
REMARK  229  A    between atoms: _552  and  _553
REMARK  230  A    between atoms: _552  and  _555
REMARK  231  A    between atoms: _555  and  _556
REMARK  232  A    between atoms: _559  and  _561
REMARK  233  A    between atoms: _561  and  _562
REMARK  234  A    between atoms: _564  and  _566
REMARK  235  A    between atoms: _566  and  _567
REMARK  236  A    between atoms: _566  and  _569
REMARK  237  A    between atoms: _569  and  _570
REMARK  238  A    between atoms: _570  and  _571
REMARK  239  A    between atoms: _571  and  _572
REMARK                            x       y       z     vdW  Elec       q    Type
REMARK                         _______ _______ _______ _____ _____    ______ ____
ROOT
ATOM      1  O   HOH     1      20.154  16.424  -3.714  0.00  0.00    +0.000 OA
ENDROOT
TORSDOF 0
REMARK  Name = ../refined-set-2016/4a6b/4a6b_pocket.pdb
REMARK  239 active torsions:
REMARK  status: ('A' for Active; 'I' for Inactive)
REMARK    1  A    between atoms: _1  and  _3
REMARK    2  A    between atoms: _3  and  _4
REMARK    3  A    between atoms: _3  and  _6
REMARK    4  A    between atoms: _6  and  _7
REMARK    5  A    between atoms: _7  and  _8
REMARK    6  A    between atoms: _8  and  _9
REMARK    7  A    between atoms: _18  and  _20
REMARK    8  A    between atoms: _20  and  _21
REMARK    9  A    between atoms: _20  and  _23
REMARK   10  A    between atoms: _23  and  _24
REMARK   11  A    between atoms: _27  and  _29
REMARK   12  A    between atoms: _29  and  _30
REMARK   13  A    between atoms: _29  and  _32
REMARK   14  A    between atoms: _32  and  _33
REMARK   15  A    between atoms: _36  and  _38
REMARK   16  A    between atoms: _38  and  _39
REMARK   17  A    between atoms: _38  and  _41
REMARK   18  A    between atoms: _41  and  _42
REMARK   19  A    between atoms: _45  and  _47
REMARK   20  A    between atoms: _47  and  _48
REMARK   21  A    between atoms: _47  and  _50
REMARK   22  A    between atoms: _50  and  _51
REMARK   23  A    between atoms: _54  and  _56
REMARK   24  A    between atoms: _56  and  _57
REMARK   25  A    between atoms: _59  and  _61
REMARK   26  A    between atoms: _61  and  _62
REMARK   27  A    between atoms: _65  and  _67
REMARK   28  A    between atoms: _67  and  _68
REMARK   29  A    between atoms: _67  and  _70
REMARK   30  A    between atoms: _70  and  _71
REMARK   31  A    between atoms: _74  and  _76
REMARK   32  A    between atoms: _76  and  _77
REMARK   33  A    between atoms: _76  and  _79
REMARK   34  A    between atoms: _79  and  _80
REMARK   35  A    between atoms: _83  and  _85
REMARK   36  A    between atoms: _85  and  _86
REMARK   37  A    between atoms: _85  and  _88
REMARK   38  A    between atoms: _88  and  _89
REMARK   39  A    between atoms: _92  and  _94
REMARK   40  A    between atoms: _94  and  _95
REMARK   41  A    between atoms: _94  and  _97
REMARK   42  A    between atoms: _100  and  _102
REMARK   43  A    between atoms: _102  and  _103
REMARK   44  A    between atoms: _102  and  _105
REMARK   45  A    between atoms: _105  and  _106
REMARK   46  A    between atoms: _106  and  _107
REMARK   47  A    between atoms: _107  and  _108
REMARK   48  A    between atoms: _108  and  _109
REMARK   49  A    between atoms: _113  and  _115
REMARK   50  A    between atoms: _115  and  _116
REMARK   51  A    between atoms: _115  and  _118
REMARK   52  A    between atoms: _118  and  _119
REMARK   53  A    between atoms: _119  and  _120
REMARK   54  A    between atoms: _122  and  _124
REMARK   55  A    between atoms: _124  and  _125
REMARK   56  A    between atoms: _124  and  _127
REMARK   57  A    between atoms: _127  and  _128
REMARK   58  A    between atoms: _131  and  _133
REMARK   59  A    between atoms: _133  and  _134
REMARK   60  A    between atoms: _136  and  _138
REMARK   61  A    between atoms: _138  and  _139
REMARK   62  A    between atoms: _141  and  _143
REMARK   63  A    between atoms: _143  and  _144
REMARK   64  A    between atoms: _143  and  _146
REMARK   65  A    between atoms: _146  and  _147
REMARK   66  A    between atoms: _150  and  _152
REMARK   67  A    between atoms: _152  and  _153
REMARK   68  A    between atoms: _155  and  _157
REMARK   69  A    between atoms: _157  and  _158
REMARK   70  A    between atoms: _160  and  _162
REMARK   71  A    between atoms: _162  and  _163
REMARK   72  A    between atoms: _162  and  _165
REMARK   73  A    between atoms: _165  and  _166
REMARK   74  A    between atoms: _172  and  _174
REMARK   75  A    between atoms: _174  and  _175
REMARK   76  A    between atoms: _174  and  _177
REMARK   77  A    between atoms: _177  and  _178
REMARK   78  A    between atoms: _181  and  _183
REMARK   79  A    between atoms: _183  and  _184
REMARK   80  A    between atoms: _183  and  _186
REMARK   81  A    between atoms: _189  and  _191
REMARK   82  A    between atoms: _191  and  _192
REMARK   83  A    between atoms: _191  and  _194
REMARK   84  A    between atoms: _194  and  _195
REMARK   85  A    between atoms: _198  and  _200
REMARK   86  A    between atoms: _200  and  _201
REMARK   87  A    between atoms: _200  and  _203
REMARK   88  A    between atoms: _203  and  _204
REMARK   89  A    between atoms: _208  and  _209
REMARK   90  A    between atoms: _214  and  _216
REMARK   91  A    between atoms: _216  and  _217
REMARK   92  A    between atoms: _216  and  _219
REMARK   93  A    between atoms: _219  and  _220
REMARK   94  A    between atoms: _223  and  _225
REMARK   95  A    between atoms: _225  and  _226
REMARK   96  A    between atoms: _225  and  _228
REMARK   97  A    between atoms: _228  and  _229
REMARK   98  A    between atoms: _234  and  _236
REMARK   99  A    between atoms: _236  and  _237
REMARK  100  A    between atoms: _236  and  _239
REMARK  101  A    between atoms: _242  and  _244
REMARK  102  A    between atoms: _244  and  _245
REMARK  103  A    between atoms: _244  and  _247
REMARK  104  A    between atoms: _247  and  _248
REMARK  105  A    between atoms: _251  and  _253
REMARK  106  A    between atoms: _253  and  _254
REMARK  107  A    between atoms: _256  and  _258
REMARK  108  A    between atoms: _258  and  _259
REMARK  109  A    between atoms: _258  and  _261
REMARK  110  A    between atoms: _261  and  _262
REMARK  111  A    between atoms: _262  and  _263
REMARK  112  A    between atoms: _263  and  _264
REMARK  113  A    between atoms: _273  and  _275
REMARK  114  A    between atoms: _275  and  _276
REMARK  115  A    between atoms: _275  and  _278
REMARK  116  A    between atoms: _278  and  _279
REMARK  117  A    between atoms: _284  and  _286
REMARK  118  A    between atoms: _286  and  _287
REMARK  119  A    between atoms: _286  and  _289
REMARK  120  A    between atoms: _289  and  _290
REMARK  121  A    between atoms: _290  and  _291
REMARK  122  A    between atoms: _291  and  _292
REMARK  123  A    between atoms: _301  and  _303
REMARK  124  A    between atoms: _303  and  _304
REMARK  125  A    between atoms: _303  and  _306
REMARK  126  A    between atoms: _306  and  _307
REMARK  127  A    between atoms: _310  and  _312
REMARK  128  A    between atoms: _312  and  _313
REMARK  129  A    between atoms: _316  and  _318
REMARK  130  A    between atoms: _318  and  _319
REMARK  131  A    between atoms: _318  and  _321
REMARK  132  A    between atoms: _321  and  _322
REMARK  133  A    between atoms: _325  and  _327
REMARK  134  A    between atoms: _327  and  _328
REMARK  135  A    between atoms: _327  and  _330
REMARK  136  A    between atoms: _330  and  _331
REMARK  137  A    between atoms: _334  and  _336
REMARK  138  A    between atoms: _336  and  _337
REMARK  139  A    between atoms: _336  and  _339
REMARK  140  A    between atoms: _339  and  _340
REMARK  141  A    between atoms: _343  and  _345
REMARK  142  A    between atoms: _345  and  _346
REMARK  143  A    between atoms: _345  and  _348
REMARK  144  A    between atoms: _348  and  _349
REMARK  145  A    between atoms: _352  and  _354
REMARK  146  A    between atoms: _354  and  _355
REMARK  147  A    between atoms: _357  and  _359
REMARK  148  A    between atoms: _359  and  _360
REMARK  149  A    between atoms: _363  and  _365
REMARK  150  A    between atoms: _365  and  _366
REMARK  151  A    between atoms: _365  and  _368
REMARK  152  A    between atoms: _368  and  _369
REMARK  153  A    between atoms: _372  and  _374
REMARK  154  A    between atoms: _374  and  _375
REMARK  155  A    between atoms: _374  and  _377
REMARK  156  A    between atoms: _377  and  _378
REMARK  157  A    between atoms: _381  and  _383
REMARK  158  A    between atoms: _383  and  _384
REMARK  159  A    between atoms: _383  and  _386
REMARK  160  A    between atoms: _386  and  _387
REMARK  161  A    between atoms: _390  and  _392
REMARK  162  A    between atoms: _392  and  _393
REMARK  163  A    between atoms: _392  and  _395
REMARK  164  A    between atoms: _398  and  _400
REMARK  165  A    between atoms: _400  and  _401
REMARK  166  A    between atoms: _400  and  _403
REMARK  167  A    between atoms: _403  and  _404
REMARK  168  A    between atoms: _404  and  _405
REMARK  169  A    between atoms: _408  and  _410
REMARK  170  A    between atoms: _410  and  _411
REMARK  171  A    between atoms: _410  and  _413
REMARK  172  A    between atoms: _413  and  _414
REMARK  173  A    between atoms: _414  and  _415
REMARK  174  A    between atoms: _415  and  _416
REMARK  175  A    between atoms: _416  and  _417
REMARK  176  A    between atoms: _421  and  _423
REMARK  177  A    between atoms: _423  and  _424
REMARK  178  A    between atoms: _423  and  _426
REMARK  179  A    between atoms: _426  and  _427
REMARK  180  A    between atoms: _427  and  _428
REMARK  181  A    between atoms: _430  and  _432
REMARK  182  A    between atoms: _432  and  _433
REMARK  183  A    between atoms: _432  and  _435
REMARK  184  A    between atoms: _435  and  _436
REMARK  185  A    between atoms: _439  and  _441
REMARK  186  A    between atoms: _441  and  _442
REMARK  187  A    between atoms: _444  and  _446
REMARK  188  A    between atoms: _446  and  _447
REMARK  189  A    between atoms: _449  and  _451
REMARK  190  A    between atoms: _451  and  _452
REMARK  191  A    between atoms: _451  and  _454
REMARK  192  A    between atoms: _454  and  _455
REMARK  193  A    between atoms: _458  and  _460
REMARK  194  A    between atoms: _460  and  _461
REMARK  195  A    between atoms: _463  and  _465
REMARK  196  A    between atoms: _465  and  _466
REMARK  197  A    between atoms: _468  and  _470
REMARK  198  A    between atoms: _470  and  _471
REMARK  199  A    between atoms: _470  and  _473
REMARK  200  A    between atoms: _473  and  _474
REMARK  201  A    between atoms: _480  and  _482
REMARK  202  A    between atoms: _482  and  _483
REMARK  203  A    between atoms: _482  and  _485
REMARK  204  A    between atoms: _485  and  _486
REMARK  205  A    between atoms: _489  and  _491
REMARK  206  A    between atoms: _491  and  _492
REMARK  207  A    between atoms: _491  and  _494
REMARK  208  A    between atoms: _497  and  _499
REMARK  209  A    between atoms: _499  and  _500
REMARK  210  A    between atoms: _499  and  _502
REMARK  211  A    between atoms: _502  and  _503
REMARK  212  A    between atoms: _506  and  _508
REMARK  213  A    between atoms: _508  and  _509
REMARK  214  A    between atoms: _508  and  _511
REMARK  215  A    between atoms: _511  and  _512
REMARK  216  A    between atoms: _516  and  _517
REMARK  217  A    between atoms: _522  and  _524
REMARK  218  A    between atoms: _524  and  _525
REMARK  219  A    between atoms: _524  and  _527
REMARK  220  A    between atoms: _527  and  _528
REMARK  221  A    between atoms: _531  and  _533
REMARK  222  A    between atoms: _533  and  _534
REMARK  223  A    between atoms: _533  and  _536
REMARK  224  A    between atoms: _536  and  _537
REMARK  225  A    between atoms: _542  and  _544
REMARK  226  A    between atoms: _544  and  _545
REMARK  227  A    between atoms: _544  and  _547
REMARK  228  A    between atoms: _550  and  _552
REMARK  229  A    between atoms: _552  and  _553
REMARK  230  A    between atoms: _552  and  _555
REMARK  231  A    between atoms: _555  and  _556
REMARK  232  A    between atoms: _559  and  _561
REMARK  233  A    between atoms: _561  and  _562
REMARK  234  A    between atoms: _564  and  _566
REMARK  235  A    between atoms: _566  and  _567
REMARK  236  A    between atoms: _566  and  _569
REMARK  237  A    between atoms: _569  and  _570
REMARK  238  A    between atoms: _570  and  _571
REMARK  239  A    between atoms: _571  and  _572
REMARK                            x       y       z     vdW  Elec       q    Type
REMARK                         _______ _______ _______ _____ _____    ______ ____
ROOT
ATOM      1  O   HOH     1      18.464  15.102   6.259  0.00  0.00    +0.000 OA
ENDROOT
TORSDOF 0
REMARK  Name = ../refined-set-2016/4a6b/4a6b_pocket.pdb
REMARK  239 active torsions:
REMARK  status: ('A' for Active; 'I' for Inactive)
REMARK    1  A    between atoms: _1  and  _3
REMARK    2  A    between atoms: _3  and  _4
REMARK    3  A    between atoms: _3  and  _6
REMARK    4  A    between atoms: _6  and  _7
REMARK    5  A    between atoms: _7  and  _8
REMARK    6  A    between atoms: _8  and  _9
REMARK    7  A    between atoms: _18  and  _20
REMARK    8  A    between atoms: _20  and  _21
REMARK    9  A    between atoms: _20  and  _23
REMARK   10  A    between atoms: _23  and  _24
REMARK   11  A    between atoms: _27  and  _29
REMARK   12  A    between atoms: _29  and  _30
REMARK   13  A    between atoms: _29  and  _32
REMARK   14  A    between atoms: _32  and  _33
REMARK   15  A    between atoms: _36  and  _38
REMARK   16  A    between atoms: _38  and  _39
REMARK   17  A    between atoms: _38  and  _41
REMARK   18  A    between atoms: _41  and  _42
REMARK   19  A    between atoms: _45  and  _47
REMARK   20  A    between atoms: _47  and  _48
REMARK   21  A    between atoms: _47  and  _50
REMARK   22  A    between atoms: _50  and  _51
REMARK   23  A    between atoms: _54  and  _56
REMARK   24  A    between atoms: _56  and  _57
REMARK   25  A    between atoms: _59  and  _61
REMARK   26  A    between atoms: _61  and  _62
REMARK   27  A    between atoms: _65  and  _67
REMARK   28  A    between atoms: _67  and  _68
REMARK   29  A    between atoms: _67  and  _70
REMARK   30  A    between atoms: _70  and  _71
REMARK   31  A    between atoms: _74  and  _76
REMARK   32  A    between atoms: _76  and  _77
REMARK   33  A    between atoms: _76  and  _79
REMARK   34  A    between atoms: _79  and  _80
REMARK   35  A    between atoms: _83  and  _85
REMARK   36  A    between atoms: _85  and  _86
REMARK   37  A    between atoms: _85  and  _88
REMARK   38  A    between atoms: _88  and  _89
REMARK   39  A    between atoms: _92  and  _94
REMARK   40  A    between atoms: _94  and  _95
REMARK   41  A    between atoms: _94  and  _97
REMARK   42  A    between atoms: _100  and  _102
REMARK   43  A    between atoms: _102  and  _103
REMARK   44  A    between atoms: _102  and  _105
REMARK   45  A    between atoms: _105  and  _106
REMARK   46  A    between atoms: _106  and  _107
REMARK   47  A    between atoms: _107  and  _108
REMARK   48  A    between atoms: _108  and  _109
REMARK   49  A    between atoms: _113  and  _115
REMARK   50  A    between atoms: _115  and  _116
REMARK   51  A    between atoms: _115  and  _118
REMARK   52  A    between atoms: _118  and  _119
REMARK   53  A    between atoms: _119  and  _120
REMARK   54  A    between atoms: _122  and  _124
REMARK   55  A    between atoms: _124  and  _125
REMARK   56  A    between atoms: _124  and  _127
REMARK   57  A    between atoms: _127  and  _128
REMARK   58  A    between atoms: _131  and  _133
REMARK   59  A    between atoms: _133  and  _134
REMARK   60  A    between atoms: _136  and  _138
REMARK   61  A    between atoms: _138  and  _139
REMARK   62  A    between atoms: _141  and  _143
REMARK   63  A    between atoms: _143  and  _144
REMARK   64  A    between atoms: _143  and  _146
REMARK   65  A    between atoms: _146  and  _147
REMARK   66  A    between atoms: _150  and  _152
REMARK   67  A    between atoms: _152  and  _153
REMARK   68  A    between atoms: _155  and  _157
REMARK   69  A    between atoms: _157  and  _158
REMARK   70  A    between atoms: _160  and  _162
REMARK   71  A    between atoms: _162  and  _163
REMARK   72  A    between atoms: _162  and  _165
REMARK   73  A    between atoms: _165  and  _166
REMARK   74  A    between atoms: _172  and  _174
REMARK   75  A    between atoms: _174  and  _175
REMARK   76  A    between atoms: _174  and  _177
REMARK   77  A    between atoms: _177  and  _178
REMARK   78  A    between atoms: _181  and  _183
REMARK   79  A    between atoms: _183  and  _184
REMARK   80  A    between atoms: _183  and  _186
REMARK   81  A    between atoms: _189  and  _191
REMARK   82  A    between atoms: _191  and  _192
REMARK   83  A    between atoms: _191  and  _194
REMARK   84  A    between atoms: _194  and  _195
REMARK   85  A    between atoms: _198  and  _200
REMARK   86  A    between atoms: _200  and  _201
REMARK   87  A    between atoms: _200  and  _203
REMARK   88  A    between atoms: _203  and  _204
REMARK   89  A    between atoms: _208  and  _209
REMARK   90  A    between atoms: _214  and  _216
REMARK   91  A    between atoms: _216  and  _217
REMARK   92  A    between atoms: _216  and  _219
REMARK   93  A    between atoms: _219  and  _220
REMARK   94  A    between atoms: _223  and  _225
REMARK   95  A    between atoms: _225  and  _226
REMARK   96  A    between atoms: _225  and  _228
REMARK   97  A    between atoms: _228  and  _229
REMARK   98  A    between atoms: _234  and  _236
REMARK   99  A    between atoms: _236  and  _237
REMARK  100  A    between atoms: _236  and  _239
REMARK  101  A    between atoms: _242  and  _244
REMARK  102  A    between atoms: _244  and  _245
REMARK  103  A    between atoms: _244  and  _247
REMARK  104  A    between atoms: _247  and  _248
REMARK  105  A    between atoms: _251  and  _253
REMARK  106  A    between atoms: _253  and  _254
REMARK  107  A    between atoms: _256  and  _258
REMARK  108  A    between atoms: _258  and  _259
REMARK  109  A    between atoms: _258  and  _261
REMARK  110  A    between atoms: _261  and  _262
REMARK  111  A    between atoms: _262  and  _263
REMARK  112  A    between atoms: _263  and  _264
REMARK  113  A    between atoms: _273  and  _275
REMARK  114  A    between atoms: _275  and  _276
REMARK  115  A    between atoms: _275  and  _278
REMARK  116  A    between atoms: _278  and  _279
REMARK  117  A    between atoms: _284  and  _286
REMARK  118  A    between atoms: _286  and  _287
REMARK  119  A    between atoms: _286  and  _289
REMARK  120  A    between atoms: _289  and  _290
REMARK  121  A    between atoms: _290  and  _291
REMARK  122  A    between atoms: _291  and  _292
REMARK  123  A    between atoms: _301  and  _303
REMARK  124  A    between atoms: _303  and  _304
REMARK  125  A    between atoms: _303  and  _306
REMARK  126  A    between atoms: _306  and  _307
REMARK  127  A    between atoms: _310  and  _312
REMARK  128  A    between atoms: _312  and  _313
REMARK  129  A    between atoms: _316  and  _318
REMARK  130  A    between atoms: _318  and  _319
REMARK  131  A    between atoms: _318  and  _321
REMARK  132  A    between atoms: _321  and  _322
REMARK  133  A    between atoms: _325  and  _327
REMARK  134  A    between atoms: _327  and  _328
REMARK  135  A    between atoms: _327  and  _330
REMARK  136  A    between atoms: _330  and  _331
REMARK  137  A    between atoms: _334  and  _336
REMARK  138  A    between atoms: _336  and  _337
REMARK  139  A    between atoms: _336  and  _339
REMARK  140  A    between atoms: _339  and  _340
REMARK  141  A    between atoms: _343  and  _345
REMARK  142  A    between atoms: _345  and  _346
REMARK  143  A    between atoms: _345  and  _348
REMARK  144  A    between atoms: _348  and  _349
REMARK  145  A    between atoms: _352  and  _354
REMARK  146  A    between atoms: _354  and  _355
REMARK  147  A    between atoms: _357  and  _359
REMARK  148  A    between atoms: _359  and  _360
REMARK  149  A    between atoms: _363  and  _365
REMARK  150  A    between atoms: _365  and  _366
REMARK  151  A    between atoms: _365  and  _368
REMARK  152  A    between atoms: _368  and  _369
REMARK  153  A    between atoms: _372  and  _374
REMARK  154  A    between atoms: _374  and  _375
REMARK  155  A    between atoms: _374  and  _377
REMARK  156  A    between atoms: _377  and  _378
REMARK  157  A    between atoms: _381  and  _383
REMARK  158  A    between atoms: _383  and  _384
REMARK  159  A    between atoms: _383  and  _386
REMARK  160  A    between atoms: _386  and  _387
REMARK  161  A    between atoms: _390  and  _392
REMARK  162  A    between atoms: _392  and  _393
REMARK  163  A    between atoms: _392  and  _395
REMARK  164  A    between atoms: _398  and  _400
REMARK  165  A    between atoms: _400  and  _401
REMARK  166  A    between atoms: _400  and  _403
REMARK  167  A    between atoms: _403  and  _404
REMARK  168  A    between atoms: _404  and  _405
REMARK  169  A    between atoms: _408  and  _410
REMARK  170  A    between atoms: _410  and  _411
REMARK  171  A    between atoms: _410  and  _413
REMARK  172  A    between atoms: _413  and  _414
REMARK  173  A    between atoms: _414  and  _415
REMARK  174  A    between atoms: _415  and  _416
REMARK  175  A    between atoms: _416  and  _417
REMARK  176  A    between atoms: _421  and  _423
REMARK  177  A    between atoms: _423  and  _424
REMARK  178  A    between atoms: _423  and  _426
REMARK  179  A    between atoms: _426  and  _427
REMARK  180  A    between atoms: _427  and  _428
REMARK  181  A    between atoms: _430  and  _432
REMARK  182  A    between atoms: _432  and  _433
REMARK  183  A    between atoms: _432  and  _435
REMARK  184  A    between atoms: _435  and  _436
REMARK  185  A    between atoms: _439  and  _441
REMARK  186  A    between atoms: _441  and  _442
REMARK  187  A    between atoms: _444  and  _446
REMARK  188  A    between atoms: _446  and  _447
REMARK  189  A    between atoms: _449  and  _451
REMARK  190  A    between atoms: _451  and  _452
REMARK  191  A    between atoms: _451  and  _454
REMARK  192  A    between atoms: _454  and  _455
REMARK  193  A    between atoms: _458  and  _460
REMARK  194  A    between atoms: _460  and  _461
REMARK  195  A    between atoms: _463  and  _465
REMARK  196  A    between atoms: _465  and  _466
REMARK  197  A    between atoms: _468  and  _470
REMARK  198  A    between atoms: _470  and  _471
REMARK  199  A    between atoms: _470  and  _473
REMARK  200  A    between atoms: _473  and  _474
REMARK  201  A    between atoms: _480  and  _482
REMARK  202  A    between atoms: _482  and  _483
REMARK  203  A    between atoms: _482  and  _485
REMARK  204  A    between atoms: _485  and  _486
REMARK  205  A    between atoms: _489  and  _491
REMARK  206  A    between atoms: _491  and  _492
REMARK  207  A    between atoms: _491  and  _494
REMARK  208  A    between atoms: _497  and  _499
REMARK  209  A    between atoms: _499  and  _500
REMARK  210  A    between atoms: _499  and  _502
REMARK  211  A    between atoms: _502  and  _503
REMARK  212  A    between atoms: _506  and  _508
REMARK  213  A    between atoms: _508  and  _509
REMARK  214  A    between atoms: _508  and  _511
REMARK  215  A    between atoms: _511  and  _512
REMARK  216  A    between atoms: _516  and  _517
REMARK  217  A    between atoms: _522  and  _524
REMARK  218  A    between atoms: _524  and  _525
REMARK  219  A    between atoms: _524  and  _527
REMARK  220  A    between atoms: _527  and  _528
REMARK  221  A    between atoms: _531  and  _533
REMARK  222  A    between atoms: _533  and  _534
REMARK  223  A    between atoms: _533  and  _536
REMARK  224  A    between atoms: _536  and  _537
REMARK  225  A    between atoms: _542  and  _544
REMARK  226  A    between atoms: _544  and  _545
REMARK  227  A    between atoms: _544  and  _547
REMARK  228  A    between atoms: _550  and  _552
REMARK  229  A    between atoms: _552  and  _553
REMARK  230  A    between atoms: _552  and  _555
REMARK  231  A    between atoms: _555  and  _556
REMARK  232  A    between atoms: _559  and  _561
REMARK  233  A    between atoms: _561  and  _562
REMARK  234  A    between atoms: _564  and  _566
REMARK  235  A    between atoms: _566  and  _567
REMARK  236  A    between atoms: _566  and  _569
REMARK  237  A    between atoms: _569  and  _570
REMARK  238  A    between atoms: _570  and  _571
REMARK  239  A    between atoms: _571  and  _572
REMARK                            x       y       z     vdW  Elec       q    Type
REMARK                         _______ _______ _______ _____ _____    ______ ____
ROOT
ATOM      1  O   HOH     1      14.156  15.688  11.219  0.00  0.00    +0.000 OA
ENDROOT
TORSDOF 0
REMARK  Name = ../refined-set-2016/4a6b/4a6b_pocket.pdb
REMARK  239 active torsions:
REMARK  status: ('A' for Active; 'I' for Inactive)
REMARK    1  A    between atoms: _1  and  _3
REMARK    2  A    between atoms: _3  and  _4
REMARK    3  A    between atoms: _3  and  _6
REMARK    4  A    between atoms: _6  and  _7
REMARK    5  A    between atoms: _7  and  _8
REMARK    6  A    between atoms: _8  and  _9
REMARK    7  A    between atoms: _18  and  _20
REMARK    8  A    between atoms: _20  and  _21
REMARK    9  A    between atoms: _20  and  _23
REMARK   10  A    between atoms: _23  and  _24
REMARK   11  A    between atoms: _27  and  _29
REMARK   12  A    between atoms: _29  and  _30
REMARK   13  A    between atoms: _29  and  _32
REMARK   14  A    between atoms: _32  and  _33
REMARK   15  A    between atoms: _36  and  _38
REMARK   16  A    between atoms: _38  and  _39
REMARK   17  A    between atoms: _38  and  _41
REMARK   18  A    between atoms: _41  and  _42
REMARK   19  A    between atoms: _45  and  _47
REMARK   20  A    between atoms: _47  and  _48
REMARK   21  A    between atoms: _47  and  _50
REMARK   22  A    between atoms: _50  and  _51
REMARK   23  A    between atoms: _54  and  _56
REMARK   24  A    between atoms: _56  and  _57
REMARK   25  A    between atoms: _59  and  _61
REMARK   26  A    between atoms: _61  and  _62
REMARK   27  A    between atoms: _65  and  _67
REMARK   28  A    between atoms: _67  and  _68
REMARK   29  A    between atoms: _67  and  _70
REMARK   30  A    between atoms: _70  and  _71
REMARK   31  A    between atoms: _74  and  _76
REMARK   32  A    between atoms: _76  and  _77
REMARK   33  A    between atoms: _76  and  _79
REMARK   34  A    between atoms: _79  and  _80
REMARK   35  A    between atoms: _83  and  _85
REMARK   36  A    between atoms: _85  and  _86
REMARK   37  A    between atoms: _85  and  _88
REMARK   38  A    between atoms: _88  and  _89
REMARK   39  A    between atoms: _92  and  _94
REMARK   40  A    between atoms: _94  and  _95
REMARK   41  A    between atoms: _94  and  _97
REMARK   42  A    between atoms: _100  and  _102
REMARK   43  A    between atoms: _102  and  _103
REMARK   44  A    between atoms: _102  and  _105
REMARK   45  A    between atoms: _105  and  _106
REMARK   46  A    between atoms: _106  and  _107
REMARK   47  A    between atoms: _107  and  _108
REMARK   48  A    between atoms: _108  and  _109
REMARK   49  A    between atoms: _113  and  _115
REMARK   50  A    between atoms: _115  and  _116
REMARK   51  A    between atoms: _115  and  _118
REMARK   52  A    between atoms: _118  and  _119
REMARK   53  A    between atoms: _119  and  _120
REMARK   54  A    between atoms: _122  and  _124
REMARK   55  A    between atoms: _124  and  _125
REMARK   56  A    between atoms: _124  and  _127
REMARK   57  A    between atoms: _127  and  _128
REMARK   58  A    between atoms: _131  and  _133
REMARK   59  A    between atoms: _133  and  _134
REMARK   60  A    between atoms: _136  and  _138
REMARK   61  A    between atoms: _138  and  _139
REMARK   62  A    between atoms: _141  and  _143
REMARK   63  A    between atoms: _143  and  _144
REMARK   64  A    between atoms: _143  and  _146
REMARK   65  A    between atoms: _146  and  _147
REMARK   66  A    between atoms: _150  and  _152
REMARK   67  A    between atoms: _152  and  _153
REMARK   68  A    between atoms: _155  and  _157
REMARK   69  A    between atoms: _157  and  _158
REMARK   70  A    between atoms: _160  and  _162
REMARK   71  A    between atoms: _162  and  _163
REMARK   72  A    between atoms: _162  and  _165
REMARK   73  A    between atoms: _165  and  _166
REMARK   74  A    between atoms: _172  and  _174
REMARK   75  A    between atoms: _174  and  _175
REMARK   76  A    between atoms: _174  and  _177
REMARK   77  A    between atoms: _177  and  _178
REMARK   78  A    between atoms: _181  and  _183
REMARK   79  A    between atoms: _183  and  _184
REMARK   80  A    between atoms: _183  and  _186
REMARK   81  A    between atoms: _189  and  _191
REMARK   82  A    between atoms: _191  and  _192
REMARK   83  A    between atoms: _191  and  _194
REMARK   84  A    between atoms: _194  and  _195
REMARK   85  A    between atoms: _198  and  _200
REMARK   86  A    between atoms: _200  and  _201
REMARK   87  A    between atoms: _200  and  _203
REMARK   88  A    between atoms: _203  and  _204
REMARK   89  A    between atoms: _208  and  _209
REMARK   90  A    between atoms: _214  and  _216
REMARK   91  A    between atoms: _216  and  _217
REMARK   92  A    between atoms: _216  and  _219
REMARK   93  A    between atoms: _219  and  _220
REMARK   94  A    between atoms: _223  and  _225
REMARK   95  A    between atoms: _225  and  _226
REMARK   96  A    between atoms: _225  and  _228
REMARK   97  A    between atoms: _228  and  _229
REMARK   98  A    between atoms: _234  and  _236
REMARK   99  A    between atoms: _236  and  _237
REMARK  100  A    between atoms: _236  and  _239
REMARK  101  A    between atoms: _242  and  _244
REMARK  102  A    between atoms: _244  and  _245
REMARK  103  A    between atoms: _244  and  _247
REMARK  104  A    between atoms: _247  and  _248
REMARK  105  A    between atoms: _251  and  _253
REMARK  106  A    between atoms: _253  and  _254
REMARK  107  A    between atoms: _256  and  _258
REMARK  108  A    between atoms: _258  and  _259
REMARK  109  A    between atoms: _258  and  _261
REMARK  110  A    between atoms: _261  and  _262
REMARK  111  A    between atoms: _262  and  _263
REMARK  112  A    between atoms: _263  and  _264
REMARK  113  A    between atoms: _273  and  _275
REMARK  114  A    between atoms: _275  and  _276
REMARK  115  A    between atoms: _275  and  _278
REMARK  116  A    between atoms: _278  and  _279
REMARK  117  A    between atoms: _284  and  _286
REMARK  118  A    between atoms: _286  and  _287
REMARK  119  A    between atoms: _286  and  _289
REMARK  120  A    between atoms: _289  and  _290
REMARK  121  A    between atoms: _290  and  _291
REMARK  122  A    between atoms: _291  and  _292
REMARK  123  A    between atoms: _301  and  _303
REMARK  124  A    between atoms: _303  and  _304
REMARK  125  A    between atoms: _303  and  _306
REMARK  126  A    between atoms: _306  and  _307
REMARK  127  A    between atoms: _310  and  _312
REMARK  128  A    between atoms: _312  and  _313
REMARK  129  A    between atoms: _316  and  _318
REMARK  130  A    between atoms: _318  and  _319
REMARK  131  A    between atoms: _318  and  _321
REMARK  132  A    between atoms: _321  and  _322
REMARK  133  A    between atoms: _325  and  _327
REMARK  134  A    between atoms: _327  and  _328
REMARK  135  A    between atoms: _327  and  _330
REMARK  136  A    between atoms: _330  and  _331
REMARK  137  A    between atoms: _334  and  _336
REMARK  138  A    between atoms: _336  and  _337
REMARK  139  A    between atoms: _336  and  _339
REMARK  140  A    between atoms: _339  and  _340
REMARK  141  A    between atoms: _343  and  _345
REMARK  142  A    between atoms: _345  and  _346
REMARK  143  A    between atoms: _345  and  _348
REMARK  144  A    between atoms: _348  and  _349
REMARK  145  A    between atoms: _352  and  _354
REMARK  146  A    between atoms: _354  and  _355
REMARK  147  A    between atoms: _357  and  _359
REMARK  148  A    between atoms: _359  and  _360
REMARK  149  A    between atoms: _363  and  _365
REMARK  150  A    between atoms: _365  and  _366
REMARK  151  A    between atoms: _365  and  _368
REMARK  152  A    between atoms: _368  and  _369
REMARK  153  A    between atoms: _372  and  _374
REMARK  154  A    between atoms: _374  and  _375
REMARK  155  A    between atoms: _374  and  _377
REMARK  156  A    between atoms: _377  and  _378
REMARK  157  A    between atoms: _381  and  _383
REMARK  158  A    between atoms: _383  and  _384
REMARK  159  A    between atoms: _383  and  _386
REMARK  160  A    between atoms: _386  and  _387
REMARK  161  A    between atoms: _390  and  _392
REMARK  162  A    between atoms: _392  and  _393
REMARK  163  A    between atoms: _392  and  _395
REMARK  164  A    between atoms: _398  and  _400
REMARK  165  A    between atoms: _400  and  _401
REMARK  166  A    between atoms: _400  and  _403
REMARK  167  A    between atoms: _403  and  _404
REMARK  168  A    between atoms: _404  and  _405
REMARK  169  A    between atoms: _408  and  _410
REMARK  170  A    between atoms: _410  and  _411
REMARK  171  A    between atoms: _410  and  _413
REMARK  172  A    between atoms: _413  and  _414
REMARK  173  A    between atoms: _414  and  _415
REMARK  174  A    between atoms: _415  and  _416
REMARK  175  A    between atoms: _416  and  _417
REMARK  176  A    between atoms: _421  and  _423
REMARK  177  A    between atoms: _423  and  _424
REMARK  178  A    between atoms: _423  and  _426
REMARK  179  A    between atoms: _426  and  _427
REMARK  180  A    between atoms: _427  and  _428
REMARK  181  A    between atoms: _430  and  _432
REMARK  182  A    between atoms: _432  and  _433
REMARK  183  A    between atoms: _432  and  _435
REMARK  184  A    between atoms: _435  and  _436
REMARK  185  A    between atoms: _439  and  _441
REMARK  186  A    between atoms: _441  and  _442
REMARK  187  A    between atoms: _444  and  _446
REMARK  188  A    between atoms: _446  and  _447
REMARK  189  A    between atoms: _449  and  _451
REMARK  190  A    between atoms: _451  and  _452
REMARK  191  A    between atoms: _451  and  _454
REMARK  192  A    between atoms: _454  and  _455
REMARK  193  A    between atoms: _458  and  _460
REMARK  194  A    between atoms: _460  and  _461
REMARK  195  A    between atoms: _463  and  _465
REMARK  196  A    between atoms: _465  and  _466
REMARK  197  A    between atoms: _468  and  _470
REMARK  198  A    between atoms: _470  and  _471
REMARK  199  A    between atoms: _470  and  _473
REMARK  200  A    between atoms: _473  and  _474
REMARK  201  A    between atoms: _480  and  _482
REMARK  202  A    between atoms: _482  and  _483
REMARK  203  A    between atoms: _482  and  _485
REMARK  204  A    between atoms: _485  and  _486
REMARK  205  A    between atoms: _489  and  _491
REMARK  206  A    between atoms: _491  and  _492
REMARK  207  A    between atoms: _491  and  _494
REMARK  208  A    between atoms: _497  and  _499
REMARK  209  A    between atoms: _499  and  _500
REMARK  210  A    between atoms: _499  and  _502
REMARK  211  A    between atoms: _502  and  _503
REMARK  212  A    between atoms: _506  and  _508
REMARK  213  A    between atoms: _508  and  _509
REMARK  214  A    between atoms: _508  and  _511
REMARK  215  A    between atoms: _511  and  _512
REMARK  216  A    between atoms: _516  and  _517
REMARK  217  A    between atoms: _522  and  _524
REMARK  218  A    between atoms: _524  and  _525
REMARK  219  A    between atoms: _524  and  _527
REMARK  220  A    between atoms: _527  and  _528
REMARK  221  A    between atoms: _531  and  _533
REMARK  222  A    between atoms: _533  and  _534
REMARK  223  A    between atoms: _533  and  _536
REMARK  224  A    between atoms: _536  and  _537
REMARK  225  A    between atoms: _542  and  _544
REMARK  226  A    between atoms: _544  and  _545
REMARK  227  A    between atoms: _544  and  _547
REMARK  228  A    between atoms: _550  and  _552
REMARK  229  A    between atoms: _552  and  _553
REMARK  230  A    between atoms: _552  and  _555
REMARK  231  A    between atoms: _555  and  _556
REMARK  232  A    between atoms: _559  and  _561
REMARK  233  A    between atoms: _561  and  _562
REMARK  234  A    between atoms: _564  and  _566
REMARK  235  A    between atoms: _566  and  _567
REMARK  236  A    between atoms: _566  and  _569
REMARK  237  A    between atoms: _569  and  _570
REMARK  238  A    between atoms: _570  and  _571
REMARK  239  A    between atoms: _571  and  _572
REMARK                            x       y       z     vdW  Elec       q    Type
REMARK                         _______ _______ _______ _____ _____    ______ ____
ROOT
ATOM      1  O   HOH     1       9.809  16.985  13.894  0.00  0.00    +0.000 OA
ENDROOT
TORSDOF 0
REMARK  Name = ../refined-set-2016/4a6b/4a6b_pocket.pdb
REMARK  239 active torsions:
REMARK  status: ('A' for Active; 'I' for Inactive)
REMARK    1  A    between atoms: _1  and  _3
REMARK    2  A    between atoms: _3  and  _4
REMARK    3  A    between atoms: _3  and  _6
REMARK    4  A    between atoms: _6  and  _7
REMARK    5  A    between atoms: _7  and  _8
REMARK    6  A    between atoms: _8  and  _9
REMARK    7  A    between atoms: _18  and  _20
REMARK    8  A    between atoms: _20  and  _21
REMARK    9  A    between atoms: _20  and  _23
REMARK   10  A    between atoms: _23  and  _24
REMARK   11  A    between atoms: _27  and  _29
REMARK   12  A    between atoms: _29  and  _30
REMARK   13  A    between atoms: _29  and  _32
REMARK   14  A    between atoms: _32  and  _33
REMARK   15  A    between atoms: _36  and  _38
REMARK   16  A    between atoms: _38  and  _39
REMARK   17  A    between atoms: _38  and  _41
REMARK   18  A    between atoms: _41  and  _42
REMARK   19  A    between atoms: _45  and  _47
REMARK   20  A    between atoms: _47  and  _48
REMARK   21  A    between atoms: _47  and  _50
REMARK   22  A    between atoms: _50  and  _51
REMARK   23  A    between atoms: _54  and  _56
REMARK   24  A    between atoms: _56  and  _57
REMARK   25  A    between atoms: _59  and  _61
REMARK   26  A    between atoms: _61  and  _62
REMARK   27  A    between atoms: _65  and  _67
REMARK   28  A    between atoms: _67  and  _68
REMARK   29  A    between atoms: _67  and  _70
REMARK   30  A    between atoms: _70  and  _71
REMARK   31  A    between atoms: _74  and  _76
REMARK   32  A    between atoms: _76  and  _77
REMARK   33  A    between atoms: _76  and  _79
REMARK   34  A    between atoms: _79  and  _80
REMARK   35  A    between atoms: _83  and  _85
REMARK   36  A    between atoms: _85  and  _86
REMARK   37  A    between atoms: _85  and  _88
REMARK   38  A    between atoms: _88  and  _89
REMARK   39  A    between atoms: _92  and  _94
REMARK   40  A    between atoms: _94  and  _95
REMARK   41  A    between atoms: _94  and  _97
REMARK   42  A    between atoms: _100  and  _102
REMARK   43  A    between atoms: _102  and  _103
REMARK   44  A    between atoms: _102  and  _105
REMARK   45  A    between atoms: _105  and  _106
REMARK   46  A    between atoms: _106  and  _107
REMARK   47  A    between atoms: _107  and  _108
REMARK   48  A    between atoms: _108  and  _109
REMARK   49  A    between atoms: _113  and  _115
REMARK   50  A    between atoms: _115  and  _116
REMARK   51  A    between atoms: _115  and  _118
REMARK   52  A    between atoms: _118  and  _119
REMARK   53  A    between atoms: _119  and  _120
REMARK   54  A    between atoms: _122  and  _124
REMARK   55  A    between atoms: _124  and  _125
REMARK   56  A    between atoms: _124  and  _127
REMARK   57  A    between atoms: _127  and  _128
REMARK   58  A    between atoms: _131  and  _133
REMARK   59  A    between atoms: _133  and  _134
REMARK   60  A    between atoms: _136  and  _138
REMARK   61  A    between atoms: _138  and  _139
REMARK   62  A    between atoms: _141  and  _143
REMARK   63  A    between atoms: _143  and  _144
REMARK   64  A    between atoms: _143  and  _146
REMARK   65  A    between atoms: _146  and  _147
REMARK   66  A    between atoms: _150  and  _152
REMARK   67  A    between atoms: _152  and  _153
REMARK   68  A    between atoms: _155  and  _157
REMARK   69  A    between atoms: _157  and  _158
REMARK   70  A    between atoms: _160  and  _162
REMARK   71  A    between atoms: _162  and  _163
REMARK   72  A    between atoms: _162  and  _165
REMARK   73  A    between atoms: _165  and  _166
REMARK   74  A    between atoms: _172  and  _174
REMARK   75  A    between atoms: _174  and  _175
REMARK   76  A    between atoms: _174  and  _177
REMARK   77  A    between atoms: _177  and  _178
REMARK   78  A    between atoms: _181  and  _183
REMARK   79  A    between atoms: _183  and  _184
REMARK   80  A    between atoms: _183  and  _186
REMARK   81  A    between atoms: _189  and  _191
REMARK   82  A    between atoms: _191  and  _192
REMARK   83  A    between atoms: _191  and  _194
REMARK   84  A    between atoms: _194  and  _195
REMARK   85  A    between atoms: _198  and  _200
REMARK   86  A    between atoms: _200  and  _201
REMARK   87  A    between atoms: _200  and  _203
REMARK   88  A    between atoms: _203  and  _204
REMARK   89  A    between atoms: _208  and  _209
REMARK   90  A    between atoms: _214  and  _216
REMARK   91  A    between atoms: _216  and  _217
REMARK   92  A    between atoms: _216  and  _219
REMARK   93  A    between atoms: _219  and  _220
REMARK   94  A    between atoms: _223  and  _225
REMARK   95  A    between atoms: _225  and  _226
REMARK   96  A    between atoms: _225  and  _228
REMARK   97  A    between atoms: _228  and  _229
REMARK   98  A    between atoms: _234  and  _236
REMARK   99  A    between atoms: _236  and  _237
REMARK  100  A    between atoms: _236  and  _239
REMARK  101  A    between atoms: _242  and  _244
REMARK  102  A    between atoms: _244  and  _245
REMARK  103  A    between atoms: _244  and  _247
REMARK  104  A    between atoms: _247  and  _248
REMARK  105  A    between atoms: _251  and  _253
REMARK  106  A    between atoms: _253  and  _254
REMARK  107  A    between atoms: _256  and  _258
REMARK  108  A    between atoms: _258  and  _259
REMARK  109  A    between atoms: _258  and  _261
REMARK  110  A    between atoms: _261  and  _262
REMARK  111  A    between atoms: _262  and  _263
REMARK  112  A    between atoms: _263  and  _264
REMARK  113  A    between atoms: _273  and  _275
REMARK  114  A    between atoms: _275  and  _276
REMARK  115  A    between atoms: _275  and  _278
REMARK  116  A    between atoms: _278  and  _279
REMARK  117  A    between atoms: _284  and  _286
REMARK  118  A    between atoms: _286  and  _287
REMARK  119  A    between atoms: _286  and  _289
REMARK  120  A    between atoms: _289  and  _290
REMARK  121  A    between atoms: _290  and  _291
REMARK  122  A    between atoms: _291  and  _292
REMARK  123  A    between atoms: _301  and  _303
REMARK  124  A    between atoms: _303  and  _304
REMARK  125  A    between atoms: _303  and  _306
REMARK  126  A    between atoms: _306  and  _307
REMARK  127  A    between atoms: _310  and  _312
REMARK  128  A    between atoms: _312  and  _313
REMARK  129  A    between atoms: _316  and  _318
REMARK  130  A    between atoms: _318  and  _319
REMARK  131  A    between atoms: _318  and  _321
REMARK  132  A    between atoms: _321  and  _322
REMARK  133  A    between atoms: _325  and  _327
REMARK  134  A    between atoms: _327  and  _328
REMARK  135  A    between atoms: _327  and  _330
REMARK  136  A    between atoms: _330  and  _331
REMARK  137  A    between atoms: _334  and  _336
REMARK  138  A    between atoms: _336  and  _337
REMARK  139  A    between atoms: _336  and  _339
REMARK  140  A    between atoms: _339  and  _340
REMARK  141  A    between atoms: _343  and  _345
REMARK  142  A    between atoms: _345  and  _346
REMARK  143  A    between atoms: _345  and  _348
REMARK  144  A    between atoms: _348  and  _349
REMARK  145  A    between atoms: _352  and  _354
REMARK  146  A    between atoms: _354  and  _355
REMARK  147  A    between atoms: _357  and  _359
REMARK  148  A    between atoms: _359  and  _360
REMARK  149  A    between atoms: _363  and  _365
REMARK  150  A    between atoms: _365  and  _366
REMARK  151  A    between atoms: _365  and  _368
REMARK  152  A    between atoms: _368  and  _369
REMARK  153  A    between atoms: _372  and  _374
REMARK  154  A    between atoms: _374  and  _375
REMARK  155  A    between atoms: _374  and  _377
REMARK  156  A    between atoms: _377  and  _378
REMARK  157  A    between atoms: _381  and  _383
REMARK  158  A    between atoms: _383  and  _384
REMARK  159  A    between atoms: _383  and  _386
REMARK  160  A    between atoms: _386  and  _387
REMARK  161  A    between atoms: _390  and  _392
REMARK  162  A    between atoms: _392  and  _393
REMARK  163  A    between atoms: _392  and  _395
REMARK  164  A    between atoms: _398  and  _400
REMARK  165  A    between atoms: _400  and  _401
REMARK  166  A    between atoms: _400  and  _403
REMARK  167  A    between atoms: _403  and  _404
REMARK  168  A    between atoms: _404  and  _405
REMARK  169  A    between atoms: _408  and  _410
REMARK  170  A    between atoms: _410  and  _411
REMARK  171  A    between atoms: _410  and  _413
REMARK  172  A    between atoms: _413  and  _414
REMARK  173  A    between atoms: _414  and  _415
REMARK  174  A    between atoms: _415  and  _416
REMARK  175  A    between atoms: _416  and  _417
REMARK  176  A    between atoms: _421  and  _423
REMARK  177  A    between atoms: _423  and  _424
REMARK  178  A    between atoms: _423  and  _426
REMARK  179  A    between atoms: _426  and  _427
REMARK  180  A    between atoms: _427  and  _428
REMARK  181  A    between atoms: _430  and  _432
REMARK  182  A    between atoms: _432  and  _433
REMARK  183  A    between atoms: _432  and  _435
REMARK  184  A    between atoms: _435  and  _436
REMARK  185  A    between atoms: _439  and  _441
REMARK  186  A    between atoms: _441  and  _442
REMARK  187  A    between atoms: _444  and  _446
REMARK  188  A    between atoms: _446  and  _447
REMARK  189  A    between atoms: _449  and  _451
REMARK  190  A    between atoms: _451  and  _452
REMARK  191  A    between atoms: _451  and  _454
REMARK  192  A    between atoms: _454  and  _455
REMARK  193  A    between atoms: _458  and  _460
REMARK  194  A    between atoms: _460  and  _461
REMARK  195  A    between atoms: _463  and  _465
REMARK  196  A    between atoms: _465  and  _466
REMARK  197  A    between atoms: _468  and  _470
REMARK  198  A    between atoms: _470  and  _471
REMARK  199  A    between atoms: _470  and  _473
REMARK  200  A    between atoms: _473  and  _474
REMARK  201  A    between atoms: _480  and  _482
REMARK  202  A    between atoms: _482  and  _483
REMARK  203  A    between atoms: _482  and  _485
REMARK  204  A    between atoms: _485  and  _486
REMARK  205  A    between atoms: _489  and  _491
REMARK  206  A    between atoms: _491  and  _492
REMARK  207  A    between atoms: _491  and  _494
REMARK  208  A    between atoms: _497  and  _499
REMARK  209  A    between atoms: _499  and  _500
REMARK  210  A    between atoms: _499  and  _502
REMARK  211  A    between atoms: _502  and  _503
REMARK  212  A    between atoms: _506  and  _508
REMARK  213  A    between atoms: _508  and  _509
REMARK  214  A    between atoms: _508  and  _511
REMARK  215  A    between atoms: _511  and  _512
REMARK  216  A    between atoms: _516  and  _517
REMARK  217  A    between atoms: _522  and  _524
REMARK  218  A    between atoms: _524  and  _525
REMARK  219  A    between atoms: _524  and  _527
REMARK  220  A    between atoms: _527  and  _528
REMARK  221  A    between atoms: _531  and  _533
REMARK  222  A    between atoms: _533  and  _534
REMARK  223  A    between atoms: _533  and  _536
REMARK  224  A    between atoms: _536  and  _537
REMARK  225  A    between atoms: _542  and  _544
REMARK  226  A    between atoms: _544  and  _545
REMARK  227  A    between atoms: _544  and  _547
REMARK  228  A    between atoms: _550  and  _552
REMARK  229  A    between atoms: _552  and  _553
REMARK  230  A    between atoms: _552  and  _555
REMARK  231  A    between atoms: _555  and  _556
REMARK  232  A    between atoms: _559  and  _561
REMARK  233  A    between atoms: _561  and  _562
REMARK  234  A    between atoms: _564  and  _566
REMARK  235  A    between atoms: _566  and  _567
REMARK  236  A    between atoms: _566  and  _569
REMARK  237  A    between atoms: _569  and  _570
REMARK  238  A    between atoms: _570  and  _571
REMARK  239  A    between atoms: _571  and  _572
REMARK                            x       y       z     vdW  Elec       q    Type
REMARK                         _______ _______ _______ _____ _____    ______ ____
ROOT
ATOM      1  O   HOH     1       5.358  26.498   2.630  0.00  0.00    +0.000 OA
ENDROOT
TORSDOF 0
