REMARK  Name = ../refined-set-2016/2zz1/2zz1_pocket.pdb
REMARK  211 active torsions:
REMARK  status: ('A' for Active; 'I' for Inactive)
REMARK    1  A    between atoms: _1  and  _3
REMARK    2  A    between atoms: _3  and  _4
REMARK    3  A    between atoms: _3  and  _6
REMARK    4  A    between atoms: _6  and  _7
REMARK    5  A    between atoms: _10  and  _12
REMARK    6  A    between atoms: _12  and  _13
REMARK    7  A    between atoms: _12  and  _15
REMARK    8  A    between atoms: _15  and  _16
REMARK    9  A    between atoms: _19  and  _21
REMARK   10  A    between atoms: _21  and  _22
REMARK   11  A    between atoms: _25  and  _27
REMARK   12  A    between atoms: _27  and  _28
REMARK   13  A    between atoms: _27  and  _30
REMARK   14  A    between atoms: _30  and  _31
REMARK   15  A    between atoms: _31  and  _32
REMARK   16  A    between atoms: _34  and  _36
REMARK   17  A    between atoms: _36  and  _37
REMARK   18  A    between atoms: _36  and  _39
REMARK   19  A    between atoms: _39  and  _40
REMARK   20  A    between atoms: _43  and  _45
REMARK   21  A    between atoms: _45  and  _46
REMARK   22  A    between atoms: _45  and  _48
REMARK   23  A    between atoms: _48  and  _49
REMARK   24  A    between atoms: _49  and  _50
REMARK   25  A    between atoms: _50  and  _51
REMARK   26  A    between atoms: _51  and  _52
REMARK   27  A    between atoms: _56  and  _58
REMARK   28  A    between atoms: _58  and  _59
REMARK   29  A    between atoms: _58  and  _61
REMARK   30  A    between atoms: _61  and  _62
REMARK   31  A    between atoms: _65  and  _67
REMARK   32  A    between atoms: _67  and  _68
REMARK   33  A    between atoms: _70  and  _72
REMARK   34  A    between atoms: _72  and  _73
REMARK   35  A    between atoms: _72  and  _75
REMARK   36  A    between atoms: _75  and  _76
REMARK   37  A    between atoms: _81  and  _82
REMARK   38  A    between atoms: _85  and  _86
REMARK   39  A    between atoms: _91  and  _93
REMARK   40  A    between atoms: _93  and  _94
REMARK   41  A    between atoms: _93  and  _96
REMARK   42  A    between atoms: _96  and  _97
REMARK   43  A    between atoms: _100  and  _102
REMARK   44  A    between atoms: _102  and  _103
REMARK   45  A    between atoms: _102  and  _105
REMARK   46  A    between atoms: _105  and  _106
REMARK   47  A    between atoms: _109  and  _111
REMARK   48  A    between atoms: _111  and  _112
REMARK   49  A    between atoms: _111  and  _114
REMARK   50  A    between atoms: _114  and  _115
REMARK   51  A    between atoms: _121  and  _123
REMARK   52  A    between atoms: _123  and  _124
REMARK   53  A    between atoms: _123  and  _126
REMARK   54  A    between atoms: _126  and  _127
REMARK   55  A    between atoms: _127  and  _128
REMARK   56  A    between atoms: _128  and  _129
REMARK   57  A    between atoms: _129  and  _130
REMARK   58  A    between atoms: _134  and  _136
REMARK   59  A    between atoms: _136  and  _137
REMARK   60  A    between atoms: _136  and  _139
REMARK   61  A    between atoms: _139  and  _140
REMARK   62  A    between atoms: _143  and  _145
REMARK   63  A    between atoms: _145  and  _146
REMARK   64  A    between atoms: _145  and  _148
REMARK   65  A    between atoms: _148  and  _149
REMARK   66  A    between atoms: _154  and  _156
REMARK   67  A    between atoms: _156  and  _157
REMARK   68  A    between atoms: _156  and  _159
REMARK   69  A    between atoms: _159  and  _160
REMARK   70  A    between atoms: _163  and  _165
REMARK   71  A    between atoms: _165  and  _166
REMARK   72  A    between atoms: _165  and  _168
REMARK   73  A    between atoms: _168  and  _169
REMARK   74  A    between atoms: _172  and  _174
REMARK   75  A    between atoms: _174  and  _175
REMARK   76  A    between atoms: _174  and  _177
REMARK   77  A    between atoms: _177  and  _178
REMARK   78  A    between atoms: _178  and  _179
REMARK   79  A    between atoms: _182  and  _184
REMARK   80  A    between atoms: _184  and  _185
REMARK   81  A    between atoms: _184  and  _187
REMARK   82  A    between atoms: _187  and  _188
REMARK   83  A    between atoms: _188  and  _189
REMARK   84  A    between atoms: _191  and  _193
REMARK   85  A    between atoms: _193  and  _194
REMARK   86  A    between atoms: _193  and  _196
REMARK   87  A    between atoms: _196  and  _197
REMARK   88  A    between atoms: _199  and  _201
REMARK   89  A    between atoms: _201  and  _202
REMARK   90  A    between atoms: _201  and  _204
REMARK   91  A    between atoms: _204  and  _205
REMARK   92  A    between atoms: _210  and  _212
REMARK   93  A    between atoms: _212  and  _213
REMARK   94  A    between atoms: _216  and  _218
REMARK   95  A    between atoms: _218  and  _219
REMARK   96  A    between atoms: _218  and  _221
REMARK   97  A    between atoms: _221  and  _222
REMARK   98  A    between atoms: _225  and  _227
REMARK   99  A    between atoms: _227  and  _228
REMARK  100  A    between atoms: _227  and  _230
REMARK  101  A    between atoms: _233  and  _235
REMARK  102  A    between atoms: _235  and  _236
REMARK  103  A    between atoms: _239  and  _240
REMARK  104  A    between atoms: _245  and  _247
REMARK  105  A    between atoms: _247  and  _248
REMARK  106  A    between atoms: _247  and  _250
REMARK  107  A    between atoms: _250  and  _251
REMARK  108  A    between atoms: _253  and  _255
REMARK  109  A    between atoms: _255  and  _256
REMARK  110  A    between atoms: _255  and  _258
REMARK  111  A    between atoms: _258  and  _259
REMARK  112  A    between atoms: _262  and  _264
REMARK  113  A    between atoms: _264  and  _265
REMARK  114  A    between atoms: _264  and  _267
REMARK  115  A    between atoms: _267  and  _268
REMARK  116  A    between atoms: _268  and  _269
REMARK  117  A    between atoms: _269  and  _270
REMARK  118  A    between atoms: _279  and  _281
REMARK  119  A    between atoms: _281  and  _282
REMARK  120  A    between atoms: _281  and  _284
REMARK  121  A    between atoms: _284  and  _285
REMARK  122  A    between atoms: _288  and  _290
REMARK  123  A    between atoms: _290  and  _291
REMARK  124  A    between atoms: _290  and  _293
REMARK  125  A    between atoms: _293  and  _294
REMARK  126  A    between atoms: _297  and  _298
REMARK  127  A    between atoms: _303  and  _305
REMARK  128  A    between atoms: _305  and  _306
REMARK  129  A    between atoms: _308  and  _310
REMARK  130  A    between atoms: _310  and  _311
REMARK  131  A    between atoms: _310  and  _313
REMARK  132  A    between atoms: _316  and  _318
REMARK  133  A    between atoms: _318  and  _319
REMARK  134  A    between atoms: _321  and  _323
REMARK  135  A    between atoms: _323  and  _324
REMARK  136  A    between atoms: _327  and  _329
REMARK  137  A    between atoms: _329  and  _330
REMARK  138  A    between atoms: _329  and  _332
REMARK  139  A    between atoms: _332  and  _333
REMARK  140  A    between atoms: _333  and  _334
REMARK  141  A    between atoms: _339  and  _341
REMARK  142  A    between atoms: _341  and  _342
REMARK  143  A    between atoms: _344  and  _346
REMARK  144  A    between atoms: _346  and  _347
REMARK  145  A    between atoms: _349  and  _351
REMARK  146  A    between atoms: _351  and  _352
REMARK  147  A    between atoms: _351  and  _354
REMARK  148  A    between atoms: _354  and  _355
REMARK  149  A    between atoms: _358  and  _360
REMARK  150  A    between atoms: _360  and  _361
REMARK  151  A    between atoms: _360  and  _363
REMARK  152  A    between atoms: _366  and  _368
REMARK  153  A    between atoms: _368  and  _369
REMARK  154  A    between atoms: _371  and  _373
REMARK  155  A    between atoms: _373  and  _374
REMARK  156  A    between atoms: _373  and  _376
REMARK  157  A    between atoms: _376  and  _377
REMARK  158  A    between atoms: _377  and  _378
REMARK  159  A    between atoms: _378  and  _379
REMARK  160  A    between atoms: _388  and  _390
REMARK  161  A    between atoms: _390  and  _391
REMARK  162  A    between atoms: _390  and  _393
REMARK  163  A    between atoms: _393  and  _394
REMARK  164  A    between atoms: _396  and  _398
REMARK  165  A    between atoms: _398  and  _399
REMARK  166  A    between atoms: _398  and  _401
REMARK  167  A    between atoms: _401  and  _402
REMARK  168  A    between atoms: _405  and  _407
REMARK  169  A    between atoms: _407  and  _408
REMARK  170  A    between atoms: _407  and  _410
REMARK  171  A    between atoms: _410  and  _411
REMARK  172  A    between atoms: _416  and  _417
REMARK  173  A    between atoms: _419  and  _421
REMARK  174  A    between atoms: _421  and  _422
REMARK  175  A    between atoms: _421  and  _424
REMARK  176  A    between atoms: _424  and  _425
REMARK  177  A    between atoms: _428  and  _430
REMARK  178  A    between atoms: _430  and  _431
REMARK  179  A    between atoms: _434  and  _436
REMARK  180  A    between atoms: _436  and  _437
REMARK  181  A    between atoms: _436  and  _439
REMARK  182  A    between atoms: _439  and  _440
REMARK  183  A    between atoms: _443  and  _445
REMARK  184  A    between atoms: _445  and  _446
REMARK  185  A    between atoms: _445  and  _448
REMARK  186  A    between atoms: _448  and  _449
REMARK  187  A    between atoms: _453  and  _454
REMARK  188  A    between atoms: _459  and  _461
REMARK  189  A    between atoms: _461  and  _462
REMARK  190  A    between atoms: _461  and  _464
REMARK  191  A    between atoms: _464  and  _465
REMARK  192  A    between atoms: _465  and  _466
REMARK  193  A    between atoms: _469  and  _471
REMARK  194  A    between atoms: _471  and  _472
REMARK  195  A    between atoms: _471  and  _474
REMARK  196  A    between atoms: _474  and  _475
REMARK  197  A    between atoms: _478  and  _480
REMARK  198  A    between atoms: _480  and  _481
REMARK  199  A    between atoms: _480  and  _483
REMARK  200  A    between atoms: _483  and  _484
REMARK  201  A    between atoms: _489  and  _491
REMARK  202  A    between atoms: _491  and  _492
REMARK  203  A    between atoms: _491  and  _494
REMARK  204  A    between atoms: _494  and  _495
REMARK  205  A    between atoms: _495  and  _496
REMARK  206  A    between atoms: _496  and  _497
REMARK  207  A    between atoms: _497  and  _498
REMARK  208  A    between atoms: _502  and  _504
REMARK  209  A    between atoms: _504  and  _505
REMARK  210  A    between atoms: _504  and  _507
REMARK  211  A    between atoms: _507  and  _508
REMARK                            x       y       z     vdW  Elec       q    Type
REMARK                         _______ _______ _______ _____ _____    ______ ____
ROOT
ATOM      1  CA  ALA A   3      20.042 -20.651  10.523  0.00  0.00    +0.149 C 
ATOM      2  CB  ALA A   3      21.339 -19.854  10.589  0.00  0.00    +0.031 C 
ENDROOT
BRANCH   1   3
ATOM      3  C   ALA A   3      18.820 -19.704  10.503  0.00  0.00    +0.241 C 
ATOM      4  N   MET A   4      17.781 -20.078  11.243  0.00  0.00    -0.297 N 
ATOM      5  H   MET A   4      17.853 -20.913  11.858  0.00  0.00    +0.150 HD
ATOM      6  O   ALA A   3      18.824 -18.651   9.814  0.00  0.00    -0.273 OA
BRANCH   4   7
ATOM      7  CA  MET A   4      16.527 -19.306  11.189  0.00  0.00    +0.149 C 
BRANCH   7   8
ATOM      8  C   MET A   4      16.529 -18.238  12.266  0.00  0.00    +0.241 C 
ATOM      9  O   MET A   4      16.020 -18.458  13.400  0.00  0.00    -0.273 OA
ATOM     10  N   ASP A   5      17.096 -17.064  11.900  0.00  0.00    -0.298 N 
ATOM     11  H   ASP A   5      17.429 -16.938  10.923  0.00  0.00    +0.150 HD
BRANCH  10  12
ATOM     12  CA  ASP A   5      17.247 -15.966  12.865  0.00  0.00    +0.148 C 
BRANCH  12  13
ATOM     13  C   ASP A   5      16.328 -14.779  12.570  0.00  0.00    +0.227 C 
ATOM     14  O   ASP A   5      16.555 -13.671  13.082  0.00  0.00    -0.286 OA
ENDBRANCH  12  13
BRANCH  12  15
ATOM     15  CB  ASP A   5      18.726 -15.485  12.869  0.00  0.00    +0.142 C 
BRANCH  15  16
ATOM     16  CG  ASP A   5      19.686 -16.562  13.342  0.00  0.00    +0.367 C 
ATOM     17  OD2 ASP A   5      19.395 -17.232  14.343  0.00  0.00    -0.246 OA
ATOM     18  OD1 ASP A   5      20.748 -16.692  12.673  0.00  0.00    -0.246 OA
ENDBRANCH  15  16
ENDBRANCH  12  15
ENDBRANCH  10  12
ENDBRANCH   7   8
BRANCH   7  19
ATOM     19  CB  MET A   4      15.312 -20.250  11.285  0.00  0.00    +0.041 C 
BRANCH  19  20
ATOM     20  CG  MET A   4      13.976 -19.534  11.305  0.00  0.00    +0.060 C 
BRANCH  20  21
ATOM     21  SD  MET A   4      13.880 -18.076  10.224  0.00  0.00    -0.139 S 
ATOM     22  CE  MET A   4      14.188 -18.766   8.614  0.00  0.00    +0.069 C 
ENDBRANCH  20  21
ENDBRANCH  19  20
ENDBRANCH   7  19
ENDBRANCH   4   7
ENDBRANCH   1   3
BRANCH   1  25
ATOM     23  C   LEU A   2      19.344 -22.568   9.195  0.00  0.00    +0.241 C 
ATOM     24  O   LEU A   2      18.835 -23.105  10.169  0.00  0.00    -0.273 OA
ATOM     25  N   ALA A   3      19.991 -21.415   9.274  0.00  0.00    -0.297 N 
ATOM     26  H   ALA A   3      20.473 -21.044   8.431  0.00  0.00    +0.150 HD
BRANCH  23  27
ATOM     27  CA  LEU A   2      19.185 -23.187   7.799  0.00  0.00    +0.149 C 
BRANCH  27  29
ATOM     28  C   ILE A   1      20.963 -24.831   7.689  0.00  0.00    +0.238 C 
ATOM     29  N   LEU A   2      19.686 -24.557   7.837  0.00  0.00    -0.297 N 
ATOM     30  H   LEU A   2      19.015 -25.337   7.985  0.00  0.00    +0.150 HD
ATOM     31  O   ILE A   1      21.824 -23.959   7.493  0.00  0.00    -0.274 OA
BRANCH  28  32
ATOM     32  CA  ILE A   1      21.356 -26.305   7.747  0.00  0.00    +0.145 C 
BRANCH  32  33
ATOM     33  CB  ILE A   1      22.223 -26.538   9.027  0.00  0.00    +0.025 C 
ATOM     34  CG2 ILE A   1      21.457 -26.116  10.287  0.00  0.00    +0.002 C 
BRANCH  33  35
ATOM     35  CG1 ILE A   1      22.640 -28.022   9.076  0.00  0.00    +0.002 C 
ATOM     36  CD1 ILE A   1      23.713 -28.300  10.118  0.00  0.00    +0.000 C 
ENDBRANCH  33  35
ENDBRANCH  32  33
BRANCH  32  37
ATOM     37  N   ILE A   1      22.170 -26.606   6.566  0.00  0.00    -0.238 NA
ATOM     38  H   ILE A   1      23.112 -26.170   6.498  0.00  0.00    +0.142 HD
ENDBRANCH  32  37
ENDBRANCH  28  32
ENDBRANCH  27  29
BRANCH  27  39
ATOM     39  CB  LEU A   2      17.695 -23.217   7.420  0.00  0.00    +0.029 C 
BRANCH  39  40
ATOM     40  CG  LEU A   2      16.970 -21.884   7.500  0.00  0.00    +0.002 C 
ATOM     41  CD2 LEU A   2      15.462 -22.126   7.328  0.00  0.00    +0.000 C 
ATOM     42  CD1 LEU A   2      17.445 -20.840   6.481  0.00  0.00    +0.000 C 
ENDBRANCH  39  40
ENDBRANCH  27  39
ENDBRANCH  23  27
ENDBRANCH   1  25
TORSDOF 19
REMARK  Name = ../refined-set-2016/2zz1/2zz1_pocket.pdb
REMARK  211 active torsions:
REMARK  status: ('A' for Active; 'I' for Inactive)
REMARK    1  A    between atoms: _1  and  _3
REMARK    2  A    between atoms: _3  and  _4
REMARK    3  A    between atoms: _3  and  _6
REMARK    4  A    between atoms: _6  and  _7
REMARK    5  A    between atoms: _10  and  _12
REMARK    6  A    between atoms: _12  and  _13
REMARK    7  A    between atoms: _12  and  _15
REMARK    8  A    between atoms: _15  and  _16
REMARK    9  A    between atoms: _19  and  _21
REMARK   10  A    between atoms: _21  and  _22
REMARK   11  A    between atoms: _25  and  _27
REMARK   12  A    between atoms: _27  and  _28
REMARK   13  A    between atoms: _27  and  _30
REMARK   14  A    between atoms: _30  and  _31
REMARK   15  A    between atoms: _31  and  _32
REMARK   16  A    between atoms: _34  and  _36
REMARK   17  A    between atoms: _36  and  _37
REMARK   18  A    between atoms: _36  and  _39
REMARK   19  A    between atoms: _39  and  _40
REMARK   20  A    between atoms: _43  and  _45
REMARK   21  A    between atoms: _45  and  _46
REMARK   22  A    between atoms: _45  and  _48
REMARK   23  A    between atoms: _48  and  _49
REMARK   24  A    between atoms: _49  and  _50
REMARK   25  A    between atoms: _50  and  _51
REMARK   26  A    between atoms: _51  and  _52
REMARK   27  A    between atoms: _56  and  _58
REMARK   28  A    between atoms: _58  and  _59
REMARK   29  A    between atoms: _58  and  _61
REMARK   30  A    between atoms: _61  and  _62
REMARK   31  A    between atoms: _65  and  _67
REMARK   32  A    between atoms: _67  and  _68
REMARK   33  A    between atoms: _70  and  _72
REMARK   34  A    between atoms: _72  and  _73
REMARK   35  A    between atoms: _72  and  _75
REMARK   36  A    between atoms: _75  and  _76
REMARK   37  A    between atoms: _81  and  _82
REMARK   38  A    between atoms: _85  and  _86
REMARK   39  A    between atoms: _91  and  _93
REMARK   40  A    between atoms: _93  and  _94
REMARK   41  A    between atoms: _93  and  _96
REMARK   42  A    between atoms: _96  and  _97
REMARK   43  A    between atoms: _100  and  _102
REMARK   44  A    between atoms: _102  and  _103
REMARK   45  A    between atoms: _102  and  _105
REMARK   46  A    between atoms: _105  and  _106
REMARK   47  A    between atoms: _109  and  _111
REMARK   48  A    between atoms: _111  and  _112
REMARK   49  A    between atoms: _111  and  _114
REMARK   50  A    between atoms: _114  and  _115
REMARK   51  A    between atoms: _121  and  _123
REMARK   52  A    between atoms: _123  and  _124
REMARK   53  A    between atoms: _123  and  _126
REMARK   54  A    between atoms: _126  and  _127
REMARK   55  A    between atoms: _127  and  _128
REMARK   56  A    between atoms: _128  and  _129
REMARK   57  A    between atoms: _129  and  _130
REMARK   58  A    between atoms: _134  and  _136
REMARK   59  A    between atoms: _136  and  _137
REMARK   60  A    between atoms: _136  and  _139
REMARK   61  A    between atoms: _139  and  _140
REMARK   62  A    between atoms: _143  and  _145
REMARK   63  A    between atoms: _145  and  _146
REMARK   64  A    between atoms: _145  and  _148
REMARK   65  A    between atoms: _148  and  _149
REMARK   66  A    between atoms: _154  and  _156
REMARK   67  A    between atoms: _156  and  _157
REMARK   68  A    between atoms: _156  and  _159
REMARK   69  A    between atoms: _159  and  _160
REMARK   70  A    between atoms: _163  and  _165
REMARK   71  A    between atoms: _165  and  _166
REMARK   72  A    between atoms: _165  and  _168
REMARK   73  A    between atoms: _168  and  _169
REMARK   74  A    between atoms: _172  and  _174
REMARK   75  A    between atoms: _174  and  _175
REMARK   76  A    between atoms: _174  and  _177
REMARK   77  A    between atoms: _177  and  _178
REMARK   78  A    between atoms: _178  and  _179
REMARK   79  A    between atoms: _182  and  _184
REMARK   80  A    between atoms: _184  and  _185
REMARK   81  A    between atoms: _184  and  _187
REMARK   82  A    between atoms: _187  and  _188
REMARK   83  A    between atoms: _188  and  _189
REMARK   84  A    between atoms: _191  and  _193
REMARK   85  A    between atoms: _193  and  _194
REMARK   86  A    between atoms: _193  and  _196
REMARK   87  A    between atoms: _196  and  _197
REMARK   88  A    between atoms: _199  and  _201
REMARK   89  A    between atoms: _201  and  _202
REMARK   90  A    between atoms: _201  and  _204
REMARK   91  A    between atoms: _204  and  _205
REMARK   92  A    between atoms: _210  and  _212
REMARK   93  A    between atoms: _212  and  _213
REMARK   94  A    between atoms: _216  and  _218
REMARK   95  A    between atoms: _218  and  _219
REMARK   96  A    between atoms: _218  and  _221
REMARK   97  A    between atoms: _221  and  _222
REMARK   98  A    between atoms: _225  and  _227
REMARK   99  A    between atoms: _227  and  _228
REMARK  100  A    between atoms: _227  and  _230
REMARK  101  A    between atoms: _233  and  _235
REMARK  102  A    between atoms: _235  and  _236
REMARK  103  A    between atoms: _239  and  _240
REMARK  104  A    between atoms: _245  and  _247
REMARK  105  A    between atoms: _247  and  _248
REMARK  106  A    between atoms: _247  and  _250
REMARK  107  A    between atoms: _250  and  _251
REMARK  108  A    between atoms: _253  and  _255
REMARK  109  A    between atoms: _255  and  _256
REMARK  110  A    between atoms: _255  and  _258
REMARK  111  A    between atoms: _258  and  _259
REMARK  112  A    between atoms: _262  and  _264
REMARK  113  A    between atoms: _264  and  _265
REMARK  114  A    between atoms: _264  and  _267
REMARK  115  A    between atoms: _267  and  _268
REMARK  116  A    between atoms: _268  and  _269
REMARK  117  A    between atoms: _269  and  _270
REMARK  118  A    between atoms: _279  and  _281
REMARK  119  A    between atoms: _281  and  _282
REMARK  120  A    between atoms: _281  and  _284
REMARK  121  A    between atoms: _284  and  _285
REMARK  122  A    between atoms: _288  and  _290
REMARK  123  A    between atoms: _290  and  _291
REMARK  124  A    between atoms: _290  and  _293
REMARK  125  A    between atoms: _293  and  _294
REMARK  126  A    between atoms: _297  and  _298
REMARK  127  A    between atoms: _303  and  _305
REMARK  128  A    between atoms: _305  and  _306
REMARK  129  A    between atoms: _308  and  _310
REMARK  130  A    between atoms: _310  and  _311
REMARK  131  A    between atoms: _310  and  _313
REMARK  132  A    between atoms: _316  and  _318
REMARK  133  A    between atoms: _318  and  _319
REMARK  134  A    between atoms: _321  and  _323
REMARK  135  A    between atoms: _323  and  _324
REMARK  136  A    between atoms: _327  and  _329
REMARK  137  A    between atoms: _329  and  _330
REMARK  138  A    between atoms: _329  and  _332
REMARK  139  A    between atoms: _332  and  _333
REMARK  140  A    between atoms: _333  and  _334
REMARK  141  A    between atoms: _339  and  _341
REMARK  142  A    between atoms: _341  and  _342
REMARK  143  A    between atoms: _344  and  _346
REMARK  144  A    between atoms: _346  and  _347
REMARK  145  A    between atoms: _349  and  _351
REMARK  146  A    between atoms: _351  and  _352
REMARK  147  A    between atoms: _351  and  _354
REMARK  148  A    between atoms: _354  and  _355
REMARK  149  A    between atoms: _358  and  _360
REMARK  150  A    between atoms: _360  and  _361
REMARK  151  A    between atoms: _360  and  _363
REMARK  152  A    between atoms: _366  and  _368
REMARK  153  A    between atoms: _368  and  _369
REMARK  154  A    between atoms: _371  and  _373
REMARK  155  A    between atoms: _373  and  _374
REMARK  156  A    between atoms: _373  and  _376
REMARK  157  A    between atoms: _376  and  _377
REMARK  158  A    between atoms: _377  and  _378
REMARK  159  A    between atoms: _378  and  _379
REMARK  160  A    between atoms: _388  and  _390
REMARK  161  A    between atoms: _390  and  _391
REMARK  162  A    between atoms: _390  and  _393
REMARK  163  A    between atoms: _393  and  _394
REMARK  164  A    between atoms: _396  and  _398
REMARK  165  A    between atoms: _398  and  _399
REMARK  166  A    between atoms: _398  and  _401
REMARK  167  A    between atoms: _401  and  _402
REMARK  168  A    between atoms: _405  and  _407
REMARK  169  A    between atoms: _407  and  _408
REMARK  170  A    between atoms: _407  and  _410
REMARK  171  A    between atoms: _410  and  _411
REMARK  172  A    between atoms: _416  and  _417
REMARK  173  A    between atoms: _419  and  _421
REMARK  174  A    between atoms: _421  and  _422
REMARK  175  A    between atoms: _421  and  _424
REMARK  176  A    between atoms: _424  and  _425
REMARK  177  A    between atoms: _428  and  _430
REMARK  178  A    between atoms: _430  and  _431
REMARK  179  A    between atoms: _434  and  _436
REMARK  180  A    between atoms: _436  and  _437
REMARK  181  A    between atoms: _436  and  _439
REMARK  182  A    between atoms: _439  and  _440
REMARK  183  A    between atoms: _443  and  _445
REMARK  184  A    between atoms: _445  and  _446
REMARK  185  A    between atoms: _445  and  _448
REMARK  186  A    between atoms: _448  and  _449
REMARK  187  A    between atoms: _453  and  _454
REMARK  188  A    between atoms: _459  and  _461
REMARK  189  A    between atoms: _461  and  _462
REMARK  190  A    between atoms: _461  and  _464
REMARK  191  A    between atoms: _464  and  _465
REMARK  192  A    between atoms: _465  and  _466
REMARK  193  A    between atoms: _469  and  _471
REMARK  194  A    between atoms: _471  and  _472
REMARK  195  A    between atoms: _471  and  _474
REMARK  196  A    between atoms: _474  and  _475
REMARK  197  A    between atoms: _478  and  _480
REMARK  198  A    between atoms: _480  and  _481
REMARK  199  A    between atoms: _480  and  _483
REMARK  200  A    between atoms: _483  and  _484
REMARK  201  A    between atoms: _489  and  _491
REMARK  202  A    between atoms: _491  and  _492
REMARK  203  A    between atoms: _491  and  _494
REMARK  204  A    between atoms: _494  and  _495
REMARK  205  A    between atoms: _495  and  _496
REMARK  206  A    between atoms: _496  and  _497
REMARK  207  A    between atoms: _497  and  _498
REMARK  208  A    between atoms: _502  and  _504
REMARK  209  A    between atoms: _504  and  _505
REMARK  210  A    between atoms: _504  and  _507
REMARK  211  A    between atoms: _507  and  _508
REMARK                            x       y       z     vdW  Elec       q    Type
REMARK                         _______ _______ _______ _____ _____    ______ ____
ROOT
ATOM      1  C   GLY A   3      17.799 -18.525  19.030  0.00  0.00    +0.243 C 
ATOM      2  N   TYR A   4      18.518 -17.755  19.854  0.00  0.00    -0.297 N 
ATOM      3  H   TYR A   4      19.556 -17.812  19.861  0.00  0.00    +0.150 HD
ATOM      4  O   GLY A   3      16.555 -18.535  18.969  0.00  0.00    -0.273 OA
ENDROOT
BRANCH   1   5
ATOM      5  CA  GLY A   3      18.654 -19.472  18.233  0.00  0.00    +0.176 C 
BRANCH   5   8
ATOM      6  C   ILE A   2      17.783 -21.454  17.118  0.00  0.00    +0.241 C 
ATOM      7  O   ILE A   2      18.246 -22.230  17.975  0.00  0.00    -0.273 OA
ATOM      8  N   GLY A   3      17.895 -20.125  17.174  0.00  0.00    -0.295 N 
ATOM      9  H   GLY A   3      17.431 -19.544  16.447  0.00  0.00    +0.150 HD
BRANCH   6  10
ATOM     10  CA  ILE A   2      16.982 -22.036  15.935  0.00  0.00    +0.148 C 
BRANCH  10  12
ATOM     11  C   LYS A   1      18.340 -22.989  14.141  0.00  0.00    +0.238 C 
ATOM     12  N   ILE A   2      17.792 -23.098  15.358  0.00  0.00    -0.297 N 
ATOM     13  H   ILE A   2      17.950 -23.967  15.907  0.00  0.00    +0.150 HD
ATOM     14  O   LYS A   1      18.184 -22.011  13.376  0.00  0.00    -0.274 OA
BRANCH  11  15
ATOM     15  CA  LYS A   1      19.183 -24.156  13.652  0.00  0.00    +0.145 C 
BRANCH  15  16
ATOM     16  N   LYS A   1      18.533 -24.676  12.442  0.00  0.00    -0.238 NA
ATOM     17  H   LYS A   1      18.753 -24.234  11.526  0.00  0.00    +0.142 HD
ENDBRANCH  15  16
BRANCH  15  18
ATOM     18  CB  LYS A   1      20.587 -23.692  13.288  0.00  0.00    +0.026 C 
BRANCH  18  19
ATOM     19  CG  LYS A   1      21.387 -23.293  14.559  0.00  0.00    -0.000 C 
BRANCH  19  20
ATOM     20  CD  LYS A   1      22.852 -22.942  14.245  0.00  0.00    -0.024 C 
BRANCH  20  21
ATOM     21  CE  LYS A   1      22.998 -21.545  13.603  0.00  0.00    -0.086 C 
BRANCH  21  22
ATOM     22  NZ  LYS A   1      22.464 -20.457  14.526  0.00  0.00    +0.380 N 
ATOM     23  HZ1 LYS A   1      22.996 -20.470  15.419  0.00  0.00    -0.089 HD
ATOM     24  HZ2 LYS A   1      21.457 -20.631  14.719  0.00  0.00    -0.089 HD
ATOM     25  HZ3 LYS A   1      22.575 -19.530  14.068  0.00  0.00    -0.089 HD
ENDBRANCH  21  22
ENDBRANCH  20  21
ENDBRANCH  19  20
ENDBRANCH  18  19
ENDBRANCH  15  18
ENDBRANCH  11  15
ENDBRANCH  10  12
BRANCH  10  26
ATOM     26  CB  ILE A   2      15.623 -22.572  16.415  0.00  0.00    +0.027 C 
ATOM     27  CG2 ILE A   2      14.902 -21.484  17.238  0.00  0.00    +0.002 C 
BRANCH  26  28
ATOM     28  CG1 ILE A   2      14.803 -23.050  15.189  0.00  0.00    +0.002 C 
ATOM     29  CD1 ILE A   2      13.354 -23.563  15.557  0.00  0.00    +0.000 C 
ENDBRANCH  26  28
ENDBRANCH  10  26
ENDBRANCH   6  10
ENDBRANCH   5   8
ENDBRANCH   1   5
BRANCH   2  30
ATOM     30  CA  TYR A   4      17.829 -16.848  20.729  0.00  0.00    +0.153 C 
BRANCH  30  31
ATOM     31  C   TYR A   4      17.068 -15.715  19.998  0.00  0.00    +0.244 C 
ATOM     32  O   TYR A   4      16.082 -15.215  20.537  0.00  0.00    -0.273 OA
ATOM     33  N   PRO A   5      17.531 -15.216  18.846  0.00  0.00    -0.272 N 
ATOM     34  CA  PRO A   5      16.707 -14.151  18.162  0.00  0.00    +0.152 C 
ATOM     35  CB  PRO A   5      17.407 -13.991  16.818  0.00  0.00    +0.031 C 
ATOM     36  CG  PRO A   5      18.885 -14.261  17.159  0.00  0.00    +0.024 C 
ATOM     37  CD  PRO A   5      18.781 -15.487  18.112  0.00  0.00    +0.094 C 
BRANCH  34  38
ATOM     38  C   PRO A   5      15.248 -14.610  18.019  0.00  0.00    +0.241 C 
ATOM     39  O   PRO A   5      14.340 -13.856  18.356  0.00  0.00    -0.273 OA
ATOM     40  N   LEU A   6      15.045 -15.846  17.572  0.00  0.00    -0.298 N 
ATOM     41  H   LEU A   6      15.852 -16.473  17.379  0.00  0.00    +0.150 HD
BRANCH  40  42
ATOM     42  CA  LEU A   6      13.666 -16.320  17.352  0.00  0.00    +0.137 C 
BRANCH  42  43
ATOM     43  C   LEU A   6      13.059 -16.725  18.687  0.00  0.00    +0.227 C 
ATOM     44  O   LEU A   6      11.898 -16.345  18.971  0.00  0.00    -0.286 OA
ENDBRANCH  42  43
BRANCH  42  45
ATOM     45  CB  LEU A   6      13.675 -17.478  16.346  0.00  0.00    +0.028 C 
BRANCH  45  46
ATOM     46  CG  LEU A   6      12.247 -18.038  16.049  0.00  0.00    +0.002 C 
ATOM     47  CD2 LEU A   6      11.273 -16.901  15.593  0.00  0.00    +0.000 C 
ATOM     48  CD1 LEU A   6      12.410 -19.069  14.953  0.00  0.00    +0.000 C 
ENDBRANCH  45  46
ENDBRANCH  42  45
ENDBRANCH  40  42
ENDBRANCH  34  38
ENDBRANCH  30  31
BRANCH  30  49
ATOM     49  CB  TYR A   4      18.793 -16.323  21.775  0.00  0.00    +0.055 C 
BRANCH  49  50
ATOM     50  CG  TYR A   4      19.126 -17.338  22.858  0.00  0.00    -0.020 A 
ATOM     51  CD2 TYR A   4      18.102 -18.050  23.505  0.00  0.00    -0.001 A 
ATOM     52  CE2 TYR A   4      18.387 -18.927  24.507  0.00  0.00    +0.036 A 
ATOM     53  CZ  TYR A   4      19.695 -19.091  24.925  0.00  0.00    +0.134 A 
ATOM     54  CE1 TYR A   4      20.744 -18.420  24.296  0.00  0.00    +0.036 A 
ATOM     55  CD1 TYR A   4      20.441 -17.524  23.282  0.00  0.00    -0.001 A 
BRANCH  53  56
ATOM     56  OH  TYR A   4      19.881 -19.990  25.947  0.00  0.00    -0.506 OA
ATOM     57  HH  TYR A   4      20.844 -20.036  26.173  0.00  0.00    +0.292 HD
ENDBRANCH  53  56
ENDBRANCH  49  50
ENDBRANCH  30  49
ENDBRANCH   2  30
TORSDOF 23
REMARK  Name = ../refined-set-2016/2zz1/2zz1_pocket.pdb
REMARK  211 active torsions:
REMARK  status: ('A' for Active; 'I' for Inactive)
REMARK    1  A    between atoms: _1  and  _3
REMARK    2  A    between atoms: _3  and  _4
REMARK    3  A    between atoms: _3  and  _6
REMARK    4  A    between atoms: _6  and  _7
REMARK    5  A    between atoms: _10  and  _12
REMARK    6  A    between atoms: _12  and  _13
REMARK    7  A    between atoms: _12  and  _15
REMARK    8  A    between atoms: _15  and  _16
REMARK    9  A    between atoms: _19  and  _21
REMARK   10  A    between atoms: _21  and  _22
REMARK   11  A    between atoms: _25  and  _27
REMARK   12  A    between atoms: _27  and  _28
REMARK   13  A    between atoms: _27  and  _30
REMARK   14  A    between atoms: _30  and  _31
REMARK   15  A    between atoms: _31  and  _32
REMARK   16  A    between atoms: _34  and  _36
REMARK   17  A    between atoms: _36  and  _37
REMARK   18  A    between atoms: _36  and  _39
REMARK   19  A    between atoms: _39  and  _40
REMARK   20  A    between atoms: _43  and  _45
REMARK   21  A    between atoms: _45  and  _46
REMARK   22  A    between atoms: _45  and  _48
REMARK   23  A    between atoms: _48  and  _49
REMARK   24  A    between atoms: _49  and  _50
REMARK   25  A    between atoms: _50  and  _51
REMARK   26  A    between atoms: _51  and  _52
REMARK   27  A    between atoms: _56  and  _58
REMARK   28  A    between atoms: _58  and  _59
REMARK   29  A    between atoms: _58  and  _61
REMARK   30  A    between atoms: _61  and  _62
REMARK   31  A    between atoms: _65  and  _67
REMARK   32  A    between atoms: _67  and  _68
REMARK   33  A    between atoms: _70  and  _72
REMARK   34  A    between atoms: _72  and  _73
REMARK   35  A    between atoms: _72  and  _75
REMARK   36  A    between atoms: _75  and  _76
REMARK   37  A    between atoms: _81  and  _82
REMARK   38  A    between atoms: _85  and  _86
REMARK   39  A    between atoms: _91  and  _93
REMARK   40  A    between atoms: _93  and  _94
REMARK   41  A    between atoms: _93  and  _96
REMARK   42  A    between atoms: _96  and  _97
REMARK   43  A    between atoms: _100  and  _102
REMARK   44  A    between atoms: _102  and  _103
REMARK   45  A    between atoms: _102  and  _105
REMARK   46  A    between atoms: _105  and  _106
REMARK   47  A    between atoms: _109  and  _111
REMARK   48  A    between atoms: _111  and  _112
REMARK   49  A    between atoms: _111  and  _114
REMARK   50  A    between atoms: _114  and  _115
REMARK   51  A    between atoms: _121  and  _123
REMARK   52  A    between atoms: _123  and  _124
REMARK   53  A    between atoms: _123  and  _126
REMARK   54  A    between atoms: _126  and  _127
REMARK   55  A    between atoms: _127  and  _128
REMARK   56  A    between atoms: _128  and  _129
REMARK   57  A    between atoms: _129  and  _130
REMARK   58  A    between atoms: _134  and  _136
REMARK   59  A    between atoms: _136  and  _137
REMARK   60  A    between atoms: _136  and  _139
REMARK   61  A    between atoms: _139  and  _140
REMARK   62  A    between atoms: _143  and  _145
REMARK   63  A    between atoms: _145  and  _146
REMARK   64  A    between atoms: _145  and  _148
REMARK   65  A    between atoms: _148  and  _149
REMARK   66  A    between atoms: _154  and  _156
REMARK   67  A    between atoms: _156  and  _157
REMARK   68  A    between atoms: _156  and  _159
REMARK   69  A    between atoms: _159  and  _160
REMARK   70  A    between atoms: _163  and  _165
REMARK   71  A    between atoms: _165  and  _166
REMARK   72  A    between atoms: _165  and  _168
REMARK   73  A    between atoms: _168  and  _169
REMARK   74  A    between atoms: _172  and  _174
REMARK   75  A    between atoms: _174  and  _175
REMARK   76  A    between atoms: _174  and  _177
REMARK   77  A    between atoms: _177  and  _178
REMARK   78  A    between atoms: _178  and  _179
REMARK   79  A    between atoms: _182  and  _184
REMARK   80  A    between atoms: _184  and  _185
REMARK   81  A    between atoms: _184  and  _187
REMARK   82  A    between atoms: _187  and  _188
REMARK   83  A    between atoms: _188  and  _189
REMARK   84  A    between atoms: _191  and  _193
REMARK   85  A    between atoms: _193  and  _194
REMARK   86  A    between atoms: _193  and  _196
REMARK   87  A    between atoms: _196  and  _197
REMARK   88  A    between atoms: _199  and  _201
REMARK   89  A    between atoms: _201  and  _202
REMARK   90  A    between atoms: _201  and  _204
REMARK   91  A    between atoms: _204  and  _205
REMARK   92  A    between atoms: _210  and  _212
REMARK   93  A    between atoms: _212  and  _213
REMARK   94  A    between atoms: _216  and  _218
REMARK   95  A    between atoms: _218  and  _219
REMARK   96  A    between atoms: _218  and  _221
REMARK   97  A    between atoms: _221  and  _222
REMARK   98  A    between atoms: _225  and  _227
REMARK   99  A    between atoms: _227  and  _228
REMARK  100  A    between atoms: _227  and  _230
REMARK  101  A    between atoms: _233  and  _235
REMARK  102  A    between atoms: _235  and  _236
REMARK  103  A    between atoms: _239  and  _240
REMARK  104  A    between atoms: _245  and  _247
REMARK  105  A    between atoms: _247  and  _248
REMARK  106  A    between atoms: _247  and  _250
REMARK  107  A    between atoms: _250  and  _251
REMARK  108  A    between atoms: _253  and  _255
REMARK  109  A    between atoms: _255  and  _256
REMARK  110  A    between atoms: _255  and  _258
REMARK  111  A    between atoms: _258  and  _259
REMARK  112  A    between atoms: _262  and  _264
REMARK  113  A    between atoms: _264  and  _265
REMARK  114  A    between atoms: _264  and  _267
REMARK  115  A    between atoms: _267  and  _268
REMARK  116  A    between atoms: _268  and  _269
REMARK  117  A    between atoms: _269  and  _270
REMARK  118  A    between atoms: _279  and  _281
REMARK  119  A    between atoms: _281  and  _282
REMARK  120  A    between atoms: _281  and  _284
REMARK  121  A    between atoms: _284  and  _285
REMARK  122  A    between atoms: _288  and  _290
REMARK  123  A    between atoms: _290  and  _291
REMARK  124  A    between atoms: _290  and  _293
REMARK  125  A    between atoms: _293  and  _294
REMARK  126  A    between atoms: _297  and  _298
REMARK  127  A    between atoms: _303  and  _305
REMARK  128  A    between atoms: _305  and  _306
REMARK  129  A    between atoms: _308  and  _310
REMARK  130  A    between atoms: _310  and  _311
REMARK  131  A    between atoms: _310  and  _313
REMARK  132  A    between atoms: _316  and  _318
REMARK  133  A    between atoms: _318  and  _319
REMARK  134  A    between atoms: _321  and  _323
REMARK  135  A    between atoms: _323  and  _324
REMARK  136  A    between atoms: _327  and  _329
REMARK  137  A    between atoms: _329  and  _330
REMARK  138  A    between atoms: _329  and  _332
REMARK  139  A    between atoms: _332  and  _333
REMARK  140  A    between atoms: _333  and  _334
REMARK  141  A    between atoms: _339  and  _341
REMARK  142  A    between atoms: _341  and  _342
REMARK  143  A    between atoms: _344  and  _346
REMARK  144  A    between atoms: _346  and  _347
REMARK  145  A    between atoms: _349  and  _351
REMARK  146  A    between atoms: _351  and  _352
REMARK  147  A    between atoms: _351  and  _354
REMARK  148  A    between atoms: _354  and  _355
REMARK  149  A    between atoms: _358  and  _360
REMARK  150  A    between atoms: _360  and  _361
REMARK  151  A    between atoms: _360  and  _363
REMARK  152  A    between atoms: _366  and  _368
REMARK  153  A    between atoms: _368  and  _369
REMARK  154  A    between atoms: _371  and  _373
REMARK  155  A    between atoms: _373  and  _374
REMARK  156  A    between atoms: _373  and  _376
REMARK  157  A    between atoms: _376  and  _377
REMARK  158  A    between atoms: _377  and  _378
REMARK  159  A    between atoms: _378  and  _379
REMARK  160  A    between atoms: _388  and  _390
REMARK  161  A    between atoms: _390  and  _391
REMARK  162  A    between atoms: _390  and  _393
REMARK  163  A    between atoms: _393  and  _394
REMARK  164  A    between atoms: _396  and  _398
REMARK  165  A    between atoms: _398  and  _399
REMARK  166  A    between atoms: _398  and  _401
REMARK  167  A    between atoms: _401  and  _402
REMARK  168  A    between atoms: _405  and  _407
REMARK  169  A    between atoms: _407  and  _408
REMARK  170  A    between atoms: _407  and  _410
REMARK  171  A    between atoms: _410  and  _411
REMARK  172  A    between atoms: _416  and  _417
REMARK  173  A    between atoms: _419  and  _421
REMARK  174  A    between atoms: _421  and  _422
REMARK  175  A    between atoms: _421  and  _424
REMARK  176  A    between atoms: _424  and  _425
REMARK  177  A    between atoms: _428  and  _430
REMARK  178  A    between atoms: _430  and  _431
REMARK  179  A    between atoms: _434  and  _436
REMARK  180  A    between atoms: _436  and  _437
REMARK  181  A    between atoms: _436  and  _439
REMARK  182  A    between atoms: _439  and  _440
REMARK  183  A    between atoms: _443  and  _445
REMARK  184  A    between atoms: _445  and  _446
REMARK  185  A    between atoms: _445  and  _448
REMARK  186  A    between atoms: _448  and  _449
REMARK  187  A    between atoms: _453  and  _454
REMARK  188  A    between atoms: _459  and  _461
REMARK  189  A    between atoms: _461  and  _462
REMARK  190  A    between atoms: _461  and  _464
REMARK  191  A    between atoms: _464  and  _465
REMARK  192  A    between atoms: _465  and  _466
REMARK  193  A    between atoms: _469  and  _471
REMARK  194  A    between atoms: _471  and  _472
REMARK  195  A    between atoms: _471  and  _474
REMARK  196  A    between atoms: _474  and  _475
REMARK  197  A    between atoms: _478  and  _480
REMARK  198  A    between atoms: _480  and  _481
REMARK  199  A    between atoms: _480  and  _483
REMARK  200  A    between atoms: _483  and  _484
REMARK  201  A    between atoms: _489  and  _491
REMARK  202  A    between atoms: _491  and  _492
REMARK  203  A    between atoms: _491  and  _494
REMARK  204  A    between atoms: _494  and  _495
REMARK  205  A    between atoms: _495  and  _496
REMARK  206  A    between atoms: _496  and  _497
REMARK  207  A    between atoms: _497  and  _498
REMARK  208  A    between atoms: _502  and  _504
REMARK  209  A    between atoms: _504  and  _505
REMARK  210  A    between atoms: _504  and  _507
REMARK  211  A    between atoms: _507  and  _508
REMARK                            x       y       z     vdW  Elec       q    Type
REMARK                         _______ _______ _______ _____ _____    ______ ____
ROOT
ATOM      1  CA  PHE A   2      22.062 -21.256  22.571  0.00  0.00    +0.153 C 
ENDROOT
BRANCH   1   3
ATOM      2  C   ASP A   1      21.913 -21.580  20.171  0.00  0.00    +0.239 C 
ATOM      3  N   PHE A   2      22.144 -22.089  21.378  0.00  0.00    -0.297 N 
ATOM      4  H   PHE A   2      22.387 -23.096  21.472  0.00  0.00    +0.150 HD
ATOM      5  O   ASP A   1      21.685 -20.388  19.973  0.00  0.00    -0.274 OA
BRANCH   2   6
ATOM      6  CA  ASP A   1      21.909 -22.580  19.033  0.00  0.00    +0.156 C 
BRANCH   6   7
ATOM      7  N   ASP A   1      20.646 -23.280  18.984  0.00  0.00    -0.238 NA
ATOM      8  H   ASP A   1      19.870 -22.908  18.400  0.00  0.00    +0.142 HD
ENDBRANCH   6   7
BRANCH   6   9
ATOM      9  CB  ASP A   1      22.156 -21.870  17.713  0.00  0.00    +0.140 C 
BRANCH   9  10
ATOM     10  CG  ASP A   1      23.518 -21.186  17.706  0.00  0.00    +0.367 C 
ATOM     11  OD2 ASP A   1      24.305 -21.423  18.669  0.00  0.00    -0.246 OA
ATOM     12  OD1 ASP A   1      23.777 -20.433  16.752  0.00  0.00    -0.246 OA
ENDBRANCH   9  10
ENDBRANCH   6   9
ENDBRANCH   2   6
ENDBRANCH   1   3
BRANCH   1  13
ATOM     13  C   PHE A   2      23.442 -20.913  23.142  0.00  0.00    +0.241 C 
ATOM     14  O   PHE A   2      23.531 -20.227  24.151  0.00  0.00    -0.273 OA
ATOM     15  N   LYS A   3      24.508 -21.379  22.484  0.00  0.00    -0.298 N 
ATOM     16  H   LYS A   3      24.372 -22.055  21.705  0.00  0.00    +0.150 HD
BRANCH  15  17
ATOM     17  CA  LYS A   3      25.872 -20.952  22.843  0.00  0.00    +0.137 C 
BRANCH  17  18
ATOM     18  C   LYS A   3      26.061 -21.009  24.352  0.00  0.00    +0.227 C 
ATOM     19  O   LYS A   3      26.539 -20.077  24.989  0.00  0.00    -0.286 OA
ENDBRANCH  17  18
BRANCH  17  20
ATOM     20  CB  LYS A   3      26.142 -19.578  22.237  0.00  0.00    +0.028 C 
BRANCH  20  21
ATOM     21  CG  LYS A   3      26.386 -19.828  20.707  0.00  0.00    -0.000 C 
BRANCH  21  22
ATOM     22  CD  LYS A   3      27.094 -18.715  20.071  0.00  0.00    -0.024 C 
BRANCH  22  23
ATOM     23  CE  LYS A   3      27.153 -18.899  18.625  0.00  0.00    -0.086 C 
BRANCH  23  24
ATOM     24  NZ  LYS A   3      25.760 -19.097  18.052  0.00  0.00    +0.380 N 
ATOM     25  HZ1 LYS A   3      25.326 -19.939  18.481  0.00  0.00    -0.089 HD
ATOM     26  HZ2 LYS A   3      25.178 -18.261  18.262  0.00  0.00    -0.089 HD
ATOM     27  HZ3 LYS A   3      25.825 -19.226  17.022  0.00  0.00    -0.089 HD
ENDBRANCH  23  24
ENDBRANCH  22  23
ENDBRANCH  21  22
ENDBRANCH  20  21
ENDBRANCH  17  20
ENDBRANCH  15  17
ENDBRANCH   1  13
BRANCH   1  28
ATOM     28  CB  PHE A   2      21.242 -21.986  23.613  0.00  0.00    +0.055 C 
BRANCH  28  29
ATOM     29  CG  PHE A   2      19.759 -22.064  23.282  0.00  0.00    -0.020 A 
ATOM     30  CD2 PHE A   2      18.895 -22.762  24.122  0.00  0.00    -0.004 A 
ATOM     31  CE2 PHE A   2      17.517 -22.835  23.844  0.00  0.00    -0.000 A 
ATOM     32  CZ  PHE A   2      16.944 -22.202  22.745  0.00  0.00    -0.000 A 
ATOM     33  CE1 PHE A   2      17.774 -21.462  21.873  0.00  0.00    -0.000 A 
ATOM     34  CD1 PHE A   2      19.212 -21.397  22.153  0.00  0.00    -0.004 A 
ENDBRANCH  28  29
ENDBRANCH   1  28
TORSDOF 15
REMARK  Name = ../refined-set-2016/2zz1/2zz1_pocket.pdb
REMARK  211 active torsions:
REMARK  status: ('A' for Active; 'I' for Inactive)
REMARK    1  A    between atoms: _1  and  _3
REMARK    2  A    between atoms: _3  and  _4
REMARK    3  A    between atoms: _3  and  _6
REMARK    4  A    between atoms: _6  and  _7
REMARK    5  A    between atoms: _10  and  _12
REMARK    6  A    between atoms: _12  and  _13
REMARK    7  A    between atoms: _12  and  _15
REMARK    8  A    between atoms: _15  and  _16
REMARK    9  A    between atoms: _19  and  _21
REMARK   10  A    between atoms: _21  and  _22
REMARK   11  A    between atoms: _25  and  _27
REMARK   12  A    between atoms: _27  and  _28
REMARK   13  A    between atoms: _27  and  _30
REMARK   14  A    between atoms: _30  and  _31
REMARK   15  A    between atoms: _31  and  _32
REMARK   16  A    between atoms: _34  and  _36
REMARK   17  A    between atoms: _36  and  _37
REMARK   18  A    between atoms: _36  and  _39
REMARK   19  A    between atoms: _39  and  _40
REMARK   20  A    between atoms: _43  and  _45
REMARK   21  A    between atoms: _45  and  _46
REMARK   22  A    between atoms: _45  and  _48
REMARK   23  A    between atoms: _48  and  _49
REMARK   24  A    between atoms: _49  and  _50
REMARK   25  A    between atoms: _50  and  _51
REMARK   26  A    between atoms: _51  and  _52
REMARK   27  A    between atoms: _56  and  _58
REMARK   28  A    between atoms: _58  and  _59
REMARK   29  A    between atoms: _58  and  _61
REMARK   30  A    between atoms: _61  and  _62
REMARK   31  A    between atoms: _65  and  _67
REMARK   32  A    between atoms: _67  and  _68
REMARK   33  A    between atoms: _70  and  _72
REMARK   34  A    between atoms: _72  and  _73
REMARK   35  A    between atoms: _72  and  _75
REMARK   36  A    between atoms: _75  and  _76
REMARK   37  A    between atoms: _81  and  _82
REMARK   38  A    between atoms: _85  and  _86
REMARK   39  A    between atoms: _91  and  _93
REMARK   40  A    between atoms: _93  and  _94
REMARK   41  A    between atoms: _93  and  _96
REMARK   42  A    between atoms: _96  and  _97
REMARK   43  A    between atoms: _100  and  _102
REMARK   44  A    between atoms: _102  and  _103
REMARK   45  A    between atoms: _102  and  _105
REMARK   46  A    between atoms: _105  and  _106
REMARK   47  A    between atoms: _109  and  _111
REMARK   48  A    between atoms: _111  and  _112
REMARK   49  A    between atoms: _111  and  _114
REMARK   50  A    between atoms: _114  and  _115
REMARK   51  A    between atoms: _121  and  _123
REMARK   52  A    between atoms: _123  and  _124
REMARK   53  A    between atoms: _123  and  _126
REMARK   54  A    between atoms: _126  and  _127
REMARK   55  A    between atoms: _127  and  _128
REMARK   56  A    between atoms: _128  and  _129
REMARK   57  A    between atoms: _129  and  _130
REMARK   58  A    between atoms: _134  and  _136
REMARK   59  A    between atoms: _136  and  _137
REMARK   60  A    between atoms: _136  and  _139
REMARK   61  A    between atoms: _139  and  _140
REMARK   62  A    between atoms: _143  and  _145
REMARK   63  A    between atoms: _145  and  _146
REMARK   64  A    between atoms: _145  and  _148
REMARK   65  A    between atoms: _148  and  _149
REMARK   66  A    between atoms: _154  and  _156
REMARK   67  A    between atoms: _156  and  _157
REMARK   68  A    between atoms: _156  and  _159
REMARK   69  A    between atoms: _159  and  _160
REMARK   70  A    between atoms: _163  and  _165
REMARK   71  A    between atoms: _165  and  _166
REMARK   72  A    between atoms: _165  and  _168
REMARK   73  A    between atoms: _168  and  _169
REMARK   74  A    between atoms: _172  and  _174
REMARK   75  A    between atoms: _174  and  _175
REMARK   76  A    between atoms: _174  and  _177
REMARK   77  A    between atoms: _177  and  _178
REMARK   78  A    between atoms: _178  and  _179
REMARK   79  A    between atoms: _182  and  _184
REMARK   80  A    between atoms: _184  and  _185
REMARK   81  A    between atoms: _184  and  _187
REMARK   82  A    between atoms: _187  and  _188
REMARK   83  A    between atoms: _188  and  _189
REMARK   84  A    between atoms: _191  and  _193
REMARK   85  A    between atoms: _193  and  _194
REMARK   86  A    between atoms: _193  and  _196
REMARK   87  A    between atoms: _196  and  _197
REMARK   88  A    between atoms: _199  and  _201
REMARK   89  A    between atoms: _201  and  _202
REMARK   90  A    between atoms: _201  and  _204
REMARK   91  A    between atoms: _204  and  _205
REMARK   92  A    between atoms: _210  and  _212
REMARK   93  A    between atoms: _212  and  _213
REMARK   94  A    between atoms: _216  and  _218
REMARK   95  A    between atoms: _218  and  _219
REMARK   96  A    between atoms: _218  and  _221
REMARK   97  A    between atoms: _221  and  _222
REMARK   98  A    between atoms: _225  and  _227
REMARK   99  A    between atoms: _227  and  _228
REMARK  100  A    between atoms: _227  and  _230
REMARK  101  A    between atoms: _233  and  _235
REMARK  102  A    between atoms: _235  and  _236
REMARK  103  A    between atoms: _239  and  _240
REMARK  104  A    between atoms: _245  and  _247
REMARK  105  A    between atoms: _247  and  _248
REMARK  106  A    between atoms: _247  and  _250
REMARK  107  A    between atoms: _250  and  _251
REMARK  108  A    between atoms: _253  and  _255
REMARK  109  A    between atoms: _255  and  _256
REMARK  110  A    between atoms: _255  and  _258
REMARK  111  A    between atoms: _258  and  _259
REMARK  112  A    between atoms: _262  and  _264
REMARK  113  A    between atoms: _264  and  _265
REMARK  114  A    between atoms: _264  and  _267
REMARK  115  A    between atoms: _267  and  _268
REMARK  116  A    between atoms: _268  and  _269
REMARK  117  A    between atoms: _269  and  _270
REMARK  118  A    between atoms: _279  and  _281
REMARK  119  A    between atoms: _281  and  _282
REMARK  120  A    between atoms: _281  and  _284
REMARK  121  A    between atoms: _284  and  _285
REMARK  122  A    between atoms: _288  and  _290
REMARK  123  A    between atoms: _290  and  _291
REMARK  124  A    between atoms: _290  and  _293
REMARK  125  A    between atoms: _293  and  _294
REMARK  126  A    between atoms: _297  and  _298
REMARK  127  A    between atoms: _303  and  _305
REMARK  128  A    between atoms: _305  and  _306
REMARK  129  A    between atoms: _308  and  _310
REMARK  130  A    between atoms: _310  and  _311
REMARK  131  A    between atoms: _310  and  _313
REMARK  132  A    between atoms: _316  and  _318
REMARK  133  A    between atoms: _318  and  _319
REMARK  134  A    between atoms: _321  and  _323
REMARK  135  A    between atoms: _323  and  _324
REMARK  136  A    between atoms: _327  and  _329
REMARK  137  A    between atoms: _329  and  _330
REMARK  138  A    between atoms: _329  and  _332
REMARK  139  A    between atoms: _332  and  _333
REMARK  140  A    between atoms: _333  and  _334
REMARK  141  A    between atoms: _339  and  _341
REMARK  142  A    between atoms: _341  and  _342
REMARK  143  A    between atoms: _344  and  _346
REMARK  144  A    between atoms: _346  and  _347
REMARK  145  A    between atoms: _349  and  _351
REMARK  146  A    between atoms: _351  and  _352
REMARK  147  A    between atoms: _351  and  _354
REMARK  148  A    between atoms: _354  and  _355
REMARK  149  A    between atoms: _358  and  _360
REMARK  150  A    between atoms: _360  and  _361
REMARK  151  A    between atoms: _360  and  _363
REMARK  152  A    between atoms: _366  and  _368
REMARK  153  A    between atoms: _368  and  _369
REMARK  154  A    between atoms: _371  and  _373
REMARK  155  A    between atoms: _373  and  _374
REMARK  156  A    between atoms: _373  and  _376
REMARK  157  A    between atoms: _376  and  _377
REMARK  158  A    between atoms: _377  and  _378
REMARK  159  A    between atoms: _378  and  _379
REMARK  160  A    between atoms: _388  and  _390
REMARK  161  A    between atoms: _390  and  _391
REMARK  162  A    between atoms: _390  and  _393
REMARK  163  A    between atoms: _393  and  _394
REMARK  164  A    between atoms: _396  and  _398
REMARK  165  A    between atoms: _398  and  _399
REMARK  166  A    between atoms: _398  and  _401
REMARK  167  A    between atoms: _401  and  _402
REMARK  168  A    between atoms: _405  and  _407
REMARK  169  A    between atoms: _407  and  _408
REMARK  170  A    between atoms: _407  and  _410
REMARK  171  A    between atoms: _410  and  _411
REMARK  172  A    between atoms: _416  and  _417
REMARK  173  A    between atoms: _419  and  _421
REMARK  174  A    between atoms: _421  and  _422
REMARK  175  A    between atoms: _421  and  _424
REMARK  176  A    between atoms: _424  and  _425
REMARK  177  A    between atoms: _428  and  _430
REMARK  178  A    between atoms: _430  and  _431
REMARK  179  A    between atoms: _434  and  _436
REMARK  180  A    between atoms: _436  and  _437
REMARK  181  A    between atoms: _436  and  _439
REMARK  182  A    between atoms: _439  and  _440
REMARK  183  A    between atoms: _443  and  _445
REMARK  184  A    between atoms: _445  and  _446
REMARK  185  A    between atoms: _445  and  _448
REMARK  186  A    between atoms: _448  and  _449
REMARK  187  A    between atoms: _453  and  _454
REMARK  188  A    between atoms: _459  and  _461
REMARK  189  A    between atoms: _461  and  _462
REMARK  190  A    between atoms: _461  and  _464
REMARK  191  A    between atoms: _464  and  _465
REMARK  192  A    between atoms: _465  and  _466
REMARK  193  A    between atoms: _469  and  _471
REMARK  194  A    between atoms: _471  and  _472
REMARK  195  A    between atoms: _471  and  _474
REMARK  196  A    between atoms: _474  and  _475
REMARK  197  A    between atoms: _478  and  _480
REMARK  198  A    between atoms: _480  and  _481
REMARK  199  A    between atoms: _480  and  _483
REMARK  200  A    between atoms: _483  and  _484
REMARK  201  A    between atoms: _489  and  _491
REMARK  202  A    between atoms: _491  and  _492
REMARK  203  A    between atoms: _491  and  _494
REMARK  204  A    between atoms: _494  and  _495
REMARK  205  A    between atoms: _495  and  _496
REMARK  206  A    between atoms: _496  and  _497
REMARK  207  A    between atoms: _497  and  _498
REMARK  208  A    between atoms: _502  and  _504
REMARK  209  A    between atoms: _504  and  _505
REMARK  210  A    between atoms: _504  and  _507
REMARK  211  A    between atoms: _507  and  _508
REMARK                            x       y       z     vdW  Elec       q    Type
REMARK                         _______ _______ _______ _____ _____    ______ ____
ROOT
ATOM      1  CA  ILE A   1      25.235 -25.809  20.835  0.00  0.00    +0.133 C 
ENDROOT
BRANCH   1   2
ATOM      2  N   ILE A   1      23.871 -26.289  21.018  0.00  0.00    -0.239 NA
ATOM      3  H   ILE A   1      23.076 -25.637  20.859  0.00  0.00    +0.142 HD
ENDBRANCH   1   2
BRANCH   1   4
ATOM      4  C   ILE A   1      25.743 -25.168  22.099  0.00  0.00    +0.224 C 
ATOM      5  O   ILE A   1      25.104 -24.307  22.690  0.00  0.00    -0.287 OA
ENDBRANCH   1   4
BRANCH   1   6
ATOM      6  CB  ILE A   1      25.336 -24.810  19.675  0.00  0.00    +0.023 C 
ATOM      7  CG2 ILE A   1      26.792 -24.252  19.595  0.00  0.00    +0.002 C 
BRANCH   6   8
ATOM      8  CG1 ILE A   1      25.027 -25.556  18.359  0.00  0.00    +0.002 C 
ATOM      9  CD1 ILE A   1      24.787 -24.622  17.112  0.00  0.00    +0.000 C 
ENDBRANCH   6   8
ENDBRANCH   1   6
TORSDOF 4
REMARK  Name = ../refined-set-2016/2zz1/2zz1_pocket.pdb
REMARK  211 active torsions:
REMARK  status: ('A' for Active; 'I' for Inactive)
REMARK    1  A    between atoms: _1  and  _3
REMARK    2  A    between atoms: _3  and  _4
REMARK    3  A    between atoms: _3  and  _6
REMARK    4  A    between atoms: _6  and  _7
REMARK    5  A    between atoms: _10  and  _12
REMARK    6  A    between atoms: _12  and  _13
REMARK    7  A    between atoms: _12  and  _15
REMARK    8  A    between atoms: _15  and  _16
REMARK    9  A    between atoms: _19  and  _21
REMARK   10  A    between atoms: _21  and  _22
REMARK   11  A    between atoms: _25  and  _27
REMARK   12  A    between atoms: _27  and  _28
REMARK   13  A    between atoms: _27  and  _30
REMARK   14  A    between atoms: _30  and  _31
REMARK   15  A    between atoms: _31  and  _32
REMARK   16  A    between atoms: _34  and  _36
REMARK   17  A    between atoms: _36  and  _37
REMARK   18  A    between atoms: _36  and  _39
REMARK   19  A    between atoms: _39  and  _40
REMARK   20  A    between atoms: _43  and  _45
REMARK   21  A    between atoms: _45  and  _46
REMARK   22  A    between atoms: _45  and  _48
REMARK   23  A    between atoms: _48  and  _49
REMARK   24  A    between atoms: _49  and  _50
REMARK   25  A    between atoms: _50  and  _51
REMARK   26  A    between atoms: _51  and  _52
REMARK   27  A    between atoms: _56  and  _58
REMARK   28  A    between atoms: _58  and  _59
REMARK   29  A    between atoms: _58  and  _61
REMARK   30  A    between atoms: _61  and  _62
REMARK   31  A    between atoms: _65  and  _67
REMARK   32  A    between atoms: _67  and  _68
REMARK   33  A    between atoms: _70  and  _72
REMARK   34  A    between atoms: _72  and  _73
REMARK   35  A    between atoms: _72  and  _75
REMARK   36  A    between atoms: _75  and  _76
REMARK   37  A    between atoms: _81  and  _82
REMARK   38  A    between atoms: _85  and  _86
REMARK   39  A    between atoms: _91  and  _93
REMARK   40  A    between atoms: _93  and  _94
REMARK   41  A    between atoms: _93  and  _96
REMARK   42  A    between atoms: _96  and  _97
REMARK   43  A    between atoms: _100  and  _102
REMARK   44  A    between atoms: _102  and  _103
REMARK   45  A    between atoms: _102  and  _105
REMARK   46  A    between atoms: _105  and  _106
REMARK   47  A    between atoms: _109  and  _111
REMARK   48  A    between atoms: _111  and  _112
REMARK   49  A    between atoms: _111  and  _114
REMARK   50  A    between atoms: _114  and  _115
REMARK   51  A    between atoms: _121  and  _123
REMARK   52  A    between atoms: _123  and  _124
REMARK   53  A    between atoms: _123  and  _126
REMARK   54  A    between atoms: _126  and  _127
REMARK   55  A    between atoms: _127  and  _128
REMARK   56  A    between atoms: _128  and  _129
REMARK   57  A    between atoms: _129  and  _130
REMARK   58  A    between atoms: _134  and  _136
REMARK   59  A    between atoms: _136  and  _137
REMARK   60  A    between atoms: _136  and  _139
REMARK   61  A    between atoms: _139  and  _140
REMARK   62  A    between atoms: _143  and  _145
REMARK   63  A    between atoms: _145  and  _146
REMARK   64  A    between atoms: _145  and  _148
REMARK   65  A    between atoms: _148  and  _149
REMARK   66  A    between atoms: _154  and  _156
REMARK   67  A    between atoms: _156  and  _157
REMARK   68  A    between atoms: _156  and  _159
REMARK   69  A    between atoms: _159  and  _160
REMARK   70  A    between atoms: _163  and  _165
REMARK   71  A    between atoms: _165  and  _166
REMARK   72  A    between atoms: _165  and  _168
REMARK   73  A    between atoms: _168  and  _169
REMARK   74  A    between atoms: _172  and  _174
REMARK   75  A    between atoms: _174  and  _175
REMARK   76  A    between atoms: _174  and  _177
REMARK   77  A    between atoms: _177  and  _178
REMARK   78  A    between atoms: _178  and  _179
REMARK   79  A    between atoms: _182  and  _184
REMARK   80  A    between atoms: _184  and  _185
REMARK   81  A    between atoms: _184  and  _187
REMARK   82  A    between atoms: _187  and  _188
REMARK   83  A    between atoms: _188  and  _189
REMARK   84  A    between atoms: _191  and  _193
REMARK   85  A    between atoms: _193  and  _194
REMARK   86  A    between atoms: _193  and  _196
REMARK   87  A    between atoms: _196  and  _197
REMARK   88  A    between atoms: _199  and  _201
REMARK   89  A    between atoms: _201  and  _202
REMARK   90  A    between atoms: _201  and  _204
REMARK   91  A    between atoms: _204  and  _205
REMARK   92  A    between atoms: _210  and  _212
REMARK   93  A    between atoms: _212  and  _213
REMARK   94  A    between atoms: _216  and  _218
REMARK   95  A    between atoms: _218  and  _219
REMARK   96  A    between atoms: _218  and  _221
REMARK   97  A    between atoms: _221  and  _222
REMARK   98  A    between atoms: _225  and  _227
REMARK   99  A    between atoms: _227  and  _228
REMARK  100  A    between atoms: _227  and  _230
REMARK  101  A    between atoms: _233  and  _235
REMARK  102  A    between atoms: _235  and  _236
REMARK  103  A    between atoms: _239  and  _240
REMARK  104  A    between atoms: _245  and  _247
REMARK  105  A    between atoms: _247  and  _248
REMARK  106  A    between atoms: _247  and  _250
REMARK  107  A    between atoms: _250  and  _251
REMARK  108  A    between atoms: _253  and  _255
REMARK  109  A    between atoms: _255  and  _256
REMARK  110  A    between atoms: _255  and  _258
REMARK  111  A    between atoms: _258  and  _259
REMARK  112  A    between atoms: _262  and  _264
REMARK  113  A    between atoms: _264  and  _265
REMARK  114  A    between atoms: _264  and  _267
REMARK  115  A    between atoms: _267  and  _268
REMARK  116  A    between atoms: _268  and  _269
REMARK  117  A    between atoms: _269  and  _270
REMARK  118  A    between atoms: _279  and  _281
REMARK  119  A    between atoms: _281  and  _282
REMARK  120  A    between atoms: _281  and  _284
REMARK  121  A    between atoms: _284  and  _285
REMARK  122  A    between atoms: _288  and  _290
REMARK  123  A    between atoms: _290  and  _291
REMARK  124  A    between atoms: _290  and  _293
REMARK  125  A    between atoms: _293  and  _294
REMARK  126  A    between atoms: _297  and  _298
REMARK  127  A    between atoms: _303  and  _305
REMARK  128  A    between atoms: _305  and  _306
REMARK  129  A    between atoms: _308  and  _310
REMARK  130  A    between atoms: _310  and  _311
REMARK  131  A    between atoms: _310  and  _313
REMARK  132  A    between atoms: _316  and  _318
REMARK  133  A    between atoms: _318  and  _319
REMARK  134  A    between atoms: _321  and  _323
REMARK  135  A    between atoms: _323  and  _324
REMARK  136  A    between atoms: _327  and  _329
REMARK  137  A    between atoms: _329  and  _330
REMARK  138  A    between atoms: _329  and  _332
REMARK  139  A    between atoms: _332  and  _333
REMARK  140  A    between atoms: _333  and  _334
REMARK  141  A    between atoms: _339  and  _341
REMARK  142  A    between atoms: _341  and  _342
REMARK  143  A    between atoms: _344  and  _346
REMARK  144  A    between atoms: _346  and  _347
REMARK  145  A    between atoms: _349  and  _351
REMARK  146  A    between atoms: _351  and  _352
REMARK  147  A    between atoms: _351  and  _354
REMARK  148  A    between atoms: _354  and  _355
REMARK  149  A    between atoms: _358  and  _360
REMARK  150  A    between atoms: _360  and  _361
REMARK  151  A    between atoms: _360  and  _363
REMARK  152  A    between atoms: _366  and  _368
REMARK  153  A    between atoms: _368  and  _369
REMARK  154  A    between atoms: _371  and  _373
REMARK  155  A    between atoms: _373  and  _374
REMARK  156  A    between atoms: _373  and  _376
REMARK  157  A    between atoms: _376  and  _377
REMARK  158  A    between atoms: _377  and  _378
REMARK  159  A    between atoms: _378  and  _379
REMARK  160  A    between atoms: _388  and  _390
REMARK  161  A    between atoms: _390  and  _391
REMARK  162  A    between atoms: _390  and  _393
REMARK  163  A    between atoms: _393  and  _394
REMARK  164  A    between atoms: _396  and  _398
REMARK  165  A    between atoms: _398  and  _399
REMARK  166  A    between atoms: _398  and  _401
REMARK  167  A    between atoms: _401  and  _402
REMARK  168  A    between atoms: _405  and  _407
REMARK  169  A    between atoms: _407  and  _408
REMARK  170  A    between atoms: _407  and  _410
REMARK  171  A    between atoms: _410  and  _411
REMARK  172  A    between atoms: _416  and  _417
REMARK  173  A    between atoms: _419  and  _421
REMARK  174  A    between atoms: _421  and  _422
REMARK  175  A    between atoms: _421  and  _424
REMARK  176  A    between atoms: _424  and  _425
REMARK  177  A    between atoms: _428  and  _430
REMARK  178  A    between atoms: _430  and  _431
REMARK  179  A    between atoms: _434  and  _436
REMARK  180  A    between atoms: _436  and  _437
REMARK  181  A    between atoms: _436  and  _439
REMARK  182  A    between atoms: _439  and  _440
REMARK  183  A    between atoms: _443  and  _445
REMARK  184  A    between atoms: _445  and  _446
REMARK  185  A    between atoms: _445  and  _448
REMARK  186  A    between atoms: _448  and  _449
REMARK  187  A    between atoms: _453  and  _454
REMARK  188  A    between atoms: _459  and  _461
REMARK  189  A    between atoms: _461  and  _462
REMARK  190  A    between atoms: _461  and  _464
REMARK  191  A    between atoms: _464  and  _465
REMARK  192  A    between atoms: _465  and  _466
REMARK  193  A    between atoms: _469  and  _471
REMARK  194  A    between atoms: _471  and  _472
REMARK  195  A    between atoms: _471  and  _474
REMARK  196  A    between atoms: _474  and  _475
REMARK  197  A    between atoms: _478  and  _480
REMARK  198  A    between atoms: _480  and  _481
REMARK  199  A    between atoms: _480  and  _483
REMARK  200  A    between atoms: _483  and  _484
REMARK  201  A    between atoms: _489  and  _491
REMARK  202  A    between atoms: _491  and  _492
REMARK  203  A    between atoms: _491  and  _494
REMARK  204  A    between atoms: _494  and  _495
REMARK  205  A    between atoms: _495  and  _496
REMARK  206  A    between atoms: _496  and  _497
REMARK  207  A    between atoms: _497  and  _498
REMARK  208  A    between atoms: _502  and  _504
REMARK  209  A    between atoms: _504  and  _505
REMARK  210  A    between atoms: _504  and  _507
REMARK  211  A    between atoms: _507  and  _508
REMARK                            x       y       z     vdW  Elec       q    Type
REMARK                         _______ _______ _______ _____ _____    ______ ____
ROOT
ATOM      1  CB  HIS A   1      30.697 -21.578  24.718  0.00  0.00    +0.072 C 
ENDROOT
BRANCH   1   2
ATOM      2  CG  HIS A   1      30.579 -20.471  23.724  0.00  0.00    +0.082 A 
ATOM      3  CD2 HIS A   1      29.642 -19.493  23.576  0.00  0.00    +0.115 A 
ATOM      4  NE2 HIS A   1      30.048 -18.704  22.521  0.00  0.00    -0.221 NA
ATOM      5  CE1 HIS A   1      31.204 -19.177  22.057  0.00  0.00    +0.199 A 
ATOM      6  ND1 HIS A   1      31.540 -20.260  22.754  0.00  0.00    -0.227 NA
ENDBRANCH   1   2
BRANCH   1   7
ATOM      7  CA  HIS A   1      30.640 -22.980  24.099  0.00  0.00    +0.139 C 
BRANCH   7   8
ATOM      8  N   HIS A   1      29.280 -23.521  24.193  0.00  0.00    -0.239 NA
ATOM      9  H   HIS A   1      28.563 -23.024  24.759  0.00  0.00    +0.142 HD
ENDBRANCH   7   8
BRANCH   7  10
ATOM     10  C   HIS A   1      31.602 -23.842  24.886  0.00  0.00    +0.224 C 
ATOM     11  O   HIS A   1      31.316 -24.313  25.992  0.00  0.00    -0.287 OA
ENDBRANCH   7  10
ENDBRANCH   1   7
TORSDOF 4
REMARK  Name = ../refined-set-2016/2zz1/2zz1_pocket.pdb
REMARK  211 active torsions:
REMARK  status: ('A' for Active; 'I' for Inactive)
REMARK    1  A    between atoms: _1  and  _3
REMARK    2  A    between atoms: _3  and  _4
REMARK    3  A    between atoms: _3  and  _6
REMARK    4  A    between atoms: _6  and  _7
REMARK    5  A    between atoms: _10  and  _12
REMARK    6  A    between atoms: _12  and  _13
REMARK    7  A    between atoms: _12  and  _15
REMARK    8  A    between atoms: _15  and  _16
REMARK    9  A    between atoms: _19  and  _21
REMARK   10  A    between atoms: _21  and  _22
REMARK   11  A    between atoms: _25  and  _27
REMARK   12  A    between atoms: _27  and  _28
REMARK   13  A    between atoms: _27  and  _30
REMARK   14  A    between atoms: _30  and  _31
REMARK   15  A    between atoms: _31  and  _32
REMARK   16  A    between atoms: _34  and  _36
REMARK   17  A    between atoms: _36  and  _37
REMARK   18  A    between atoms: _36  and  _39
REMARK   19  A    between atoms: _39  and  _40
REMARK   20  A    between atoms: _43  and  _45
REMARK   21  A    between atoms: _45  and  _46
REMARK   22  A    between atoms: _45  and  _48
REMARK   23  A    between atoms: _48  and  _49
REMARK   24  A    between atoms: _49  and  _50
REMARK   25  A    between atoms: _50  and  _51
REMARK   26  A    between atoms: _51  and  _52
REMARK   27  A    between atoms: _56  and  _58
REMARK   28  A    between atoms: _58  and  _59
REMARK   29  A    between atoms: _58  and  _61
REMARK   30  A    between atoms: _61  and  _62
REMARK   31  A    between atoms: _65  and  _67
REMARK   32  A    between atoms: _67  and  _68
REMARK   33  A    between atoms: _70  and  _72
REMARK   34  A    between atoms: _72  and  _73
REMARK   35  A    between atoms: _72  and  _75
REMARK   36  A    between atoms: _75  and  _76
REMARK   37  A    between atoms: _81  and  _82
REMARK   38  A    between atoms: _85  and  _86
REMARK   39  A    between atoms: _91  and  _93
REMARK   40  A    between atoms: _93  and  _94
REMARK   41  A    between atoms: _93  and  _96
REMARK   42  A    between atoms: _96  and  _97
REMARK   43  A    between atoms: _100  and  _102
REMARK   44  A    between atoms: _102  and  _103
REMARK   45  A    between atoms: _102  and  _105
REMARK   46  A    between atoms: _105  and  _106
REMARK   47  A    between atoms: _109  and  _111
REMARK   48  A    between atoms: _111  and  _112
REMARK   49  A    between atoms: _111  and  _114
REMARK   50  A    between atoms: _114  and  _115
REMARK   51  A    between atoms: _121  and  _123
REMARK   52  A    between atoms: _123  and  _124
REMARK   53  A    between atoms: _123  and  _126
REMARK   54  A    between atoms: _126  and  _127
REMARK   55  A    between atoms: _127  and  _128
REMARK   56  A    between atoms: _128  and  _129
REMARK   57  A    between atoms: _129  and  _130
REMARK   58  A    between atoms: _134  and  _136
REMARK   59  A    between atoms: _136  and  _137
REMARK   60  A    between atoms: _136  and  _139
REMARK   61  A    between atoms: _139  and  _140
REMARK   62  A    between atoms: _143  and  _145
REMARK   63  A    between atoms: _145  and  _146
REMARK   64  A    between atoms: _145  and  _148
REMARK   65  A    between atoms: _148  and  _149
REMARK   66  A    between atoms: _154  and  _156
REMARK   67  A    between atoms: _156  and  _157
REMARK   68  A    between atoms: _156  and  _159
REMARK   69  A    between atoms: _159  and  _160
REMARK   70  A    between atoms: _163  and  _165
REMARK   71  A    between atoms: _165  and  _166
REMARK   72  A    between atoms: _165  and  _168
REMARK   73  A    between atoms: _168  and  _169
REMARK   74  A    between atoms: _172  and  _174
REMARK   75  A    between atoms: _174  and  _175
REMARK   76  A    between atoms: _174  and  _177
REMARK   77  A    between atoms: _177  and  _178
REMARK   78  A    between atoms: _178  and  _179
REMARK   79  A    between atoms: _182  and  _184
REMARK   80  A    between atoms: _184  and  _185
REMARK   81  A    between atoms: _184  and  _187
REMARK   82  A    between atoms: _187  and  _188
REMARK   83  A    between atoms: _188  and  _189
REMARK   84  A    between atoms: _191  and  _193
REMARK   85  A    between atoms: _193  and  _194
REMARK   86  A    between atoms: _193  and  _196
REMARK   87  A    between atoms: _196  and  _197
REMARK   88  A    between atoms: _199  and  _201
REMARK   89  A    between atoms: _201  and  _202
REMARK   90  A    between atoms: _201  and  _204
REMARK   91  A    between atoms: _204  and  _205
REMARK   92  A    between atoms: _210  and  _212
REMARK   93  A    between atoms: _212  and  _213
REMARK   94  A    between atoms: _216  and  _218
REMARK   95  A    between atoms: _218  and  _219
REMARK   96  A    between atoms: _218  and  _221
REMARK   97  A    between atoms: _221  and  _222
REMARK   98  A    between atoms: _225  and  _227
REMARK   99  A    between atoms: _227  and  _228
REMARK  100  A    between atoms: _227  and  _230
REMARK  101  A    between atoms: _233  and  _235
REMARK  102  A    between atoms: _235  and  _236
REMARK  103  A    between atoms: _239  and  _240
REMARK  104  A    between atoms: _245  and  _247
REMARK  105  A    between atoms: _247  and  _248
REMARK  106  A    between atoms: _247  and  _250
REMARK  107  A    between atoms: _250  and  _251
REMARK  108  A    between atoms: _253  and  _255
REMARK  109  A    between atoms: _255  and  _256
REMARK  110  A    between atoms: _255  and  _258
REMARK  111  A    between atoms: _258  and  _259
REMARK  112  A    between atoms: _262  and  _264
REMARK  113  A    between atoms: _264  and  _265
REMARK  114  A    between atoms: _264  and  _267
REMARK  115  A    between atoms: _267  and  _268
REMARK  116  A    between atoms: _268  and  _269
REMARK  117  A    between atoms: _269  and  _270
REMARK  118  A    between atoms: _279  and  _281
REMARK  119  A    between atoms: _281  and  _282
REMARK  120  A    between atoms: _281  and  _284
REMARK  121  A    between atoms: _284  and  _285
REMARK  122  A    between atoms: _288  and  _290
REMARK  123  A    between atoms: _290  and  _291
REMARK  124  A    between atoms: _290  and  _293
REMARK  125  A    between atoms: _293  and  _294
REMARK  126  A    between atoms: _297  and  _298
REMARK  127  A    between atoms: _303  and  _305
REMARK  128  A    between atoms: _305  and  _306
REMARK  129  A    between atoms: _308  and  _310
REMARK  130  A    between atoms: _310  and  _311
REMARK  131  A    between atoms: _310  and  _313
REMARK  132  A    between atoms: _316  and  _318
REMARK  133  A    between atoms: _318  and  _319
REMARK  134  A    between atoms: _321  and  _323
REMARK  135  A    between atoms: _323  and  _324
REMARK  136  A    between atoms: _327  and  _329
REMARK  137  A    between atoms: _329  and  _330
REMARK  138  A    between atoms: _329  and  _332
REMARK  139  A    between atoms: _332  and  _333
REMARK  140  A    between atoms: _333  and  _334
REMARK  141  A    between atoms: _339  and  _341
REMARK  142  A    between atoms: _341  and  _342
REMARK  143  A    between atoms: _344  and  _346
REMARK  144  A    between atoms: _346  and  _347
REMARK  145  A    between atoms: _349  and  _351
REMARK  146  A    between atoms: _351  and  _352
REMARK  147  A    between atoms: _351  and  _354
REMARK  148  A    between atoms: _354  and  _355
REMARK  149  A    between atoms: _358  and  _360
REMARK  150  A    between atoms: _360  and  _361
REMARK  151  A    between atoms: _360  and  _363
REMARK  152  A    between atoms: _366  and  _368
REMARK  153  A    between atoms: _368  and  _369
REMARK  154  A    between atoms: _371  and  _373
REMARK  155  A    between atoms: _373  and  _374
REMARK  156  A    between atoms: _373  and  _376
REMARK  157  A    between atoms: _376  and  _377
REMARK  158  A    between atoms: _377  and  _378
REMARK  159  A    between atoms: _378  and  _379
REMARK  160  A    between atoms: _388  and  _390
REMARK  161  A    between atoms: _390  and  _391
REMARK  162  A    between atoms: _390  and  _393
REMARK  163  A    between atoms: _393  and  _394
REMARK  164  A    between atoms: _396  and  _398
REMARK  165  A    between atoms: _398  and  _399
REMARK  166  A    between atoms: _398  and  _401
REMARK  167  A    between atoms: _401  and  _402
REMARK  168  A    between atoms: _405  and  _407
REMARK  169  A    between atoms: _407  and  _408
REMARK  170  A    between atoms: _407  and  _410
REMARK  171  A    between atoms: _410  and  _411
REMARK  172  A    between atoms: _416  and  _417
REMARK  173  A    between atoms: _419  and  _421
REMARK  174  A    between atoms: _421  and  _422
REMARK  175  A    between atoms: _421  and  _424
REMARK  176  A    between atoms: _424  and  _425
REMARK  177  A    between atoms: _428  and  _430
REMARK  178  A    between atoms: _430  and  _431
REMARK  179  A    between atoms: _434  and  _436
REMARK  180  A    between atoms: _436  and  _437
REMARK  181  A    between atoms: _436  and  _439
REMARK  182  A    between atoms: _439  and  _440
REMARK  183  A    between atoms: _443  and  _445
REMARK  184  A    between atoms: _445  and  _446
REMARK  185  A    between atoms: _445  and  _448
REMARK  186  A    between atoms: _448  and  _449
REMARK  187  A    between atoms: _453  and  _454
REMARK  188  A    between atoms: _459  and  _461
REMARK  189  A    between atoms: _461  and  _462
REMARK  190  A    between atoms: _461  and  _464
REMARK  191  A    between atoms: _464  and  _465
REMARK  192  A    between atoms: _465  and  _466
REMARK  193  A    between atoms: _469  and  _471
REMARK  194  A    between atoms: _471  and  _472
REMARK  195  A    between atoms: _471  and  _474
REMARK  196  A    between atoms: _474  and  _475
REMARK  197  A    between atoms: _478  and  _480
REMARK  198  A    between atoms: _480  and  _481
REMARK  199  A    between atoms: _480  and  _483
REMARK  200  A    between atoms: _483  and  _484
REMARK  201  A    between atoms: _489  and  _491
REMARK  202  A    between atoms: _491  and  _492
REMARK  203  A    between atoms: _491  and  _494
REMARK  204  A    between atoms: _494  and  _495
REMARK  205  A    between atoms: _495  and  _496
REMARK  206  A    between atoms: _496  and  _497
REMARK  207  A    between atoms: _497  and  _498
REMARK  208  A    between atoms: _502  and  _504
REMARK  209  A    between atoms: _504  and  _505
REMARK  210  A    between atoms: _504  and  _507
REMARK  211  A    between atoms: _507  and  _508
REMARK                            x       y       z     vdW  Elec       q    Type
REMARK                         _______ _______ _______ _____ _____    ______ ____
ROOT
ATOM      1  C   GLU A   3      35.190 -20.662  16.449  0.00  0.00    +0.241 C 
ATOM      2  N   MET A   4      34.965 -19.368  16.673  0.00  0.00    -0.297 N 
ATOM      3  H   MET A   4      35.612 -18.847  17.299  0.00  0.00    +0.150 HD
ATOM      4  O   GLU A   3      34.530 -21.351  15.698  0.00  0.00    -0.273 OA
ENDROOT
BRANCH   1   5
ATOM      5  CA  GLU A   3      36.408 -21.253  17.132  0.00  0.00    +0.149 C 
BRANCH   5   8
ATOM      6  C   THR A   2      35.670 -22.867  18.780  0.00  0.00    +0.243 C 
ATOM      7  O   THR A   2      35.430 -21.950  19.595  0.00  0.00    -0.273 OA
ATOM      8  N   GLU A   3      36.014 -22.590  17.539  0.00  0.00    -0.297 N 
ATOM      9  H   GLU A   3      36.003 -23.351  16.830  0.00  0.00    +0.150 HD
BRANCH   6  10
ATOM     10  CA  THR A   2      35.335 -24.332  19.162  0.00  0.00    +0.176 C 
BRANCH  10  13
ATOM     11  C   LEU A   1      33.000 -24.342  19.912  0.00  0.00    +0.238 C 
ATOM     12  O   LEU A   1      33.308 -24.063  21.079  0.00  0.00    -0.274 OA
ATOM     13  N   THR A   2      33.910 -24.459  18.915  0.00  0.00    -0.295 N 
ATOM     14  H   THR A   2      33.579 -24.645  17.947  0.00  0.00    +0.150 HD
BRANCH  11  15
ATOM     15  CA  LEU A   1      31.553 -24.583  19.502  0.00  0.00    +0.145 C 
BRANCH  15  16
ATOM     16  N   LEU A   1      31.030 -25.689  20.280  0.00  0.00    -0.238 NA
ATOM     17  H   LEU A   1      30.455 -25.486  21.123  0.00  0.00    +0.142 HD
ENDBRANCH  15  16
BRANCH  15  18
ATOM     18  CB  LEU A   1      30.667 -23.354  19.790  0.00  0.00    +0.026 C 
BRANCH  18  19
ATOM     19  CG  LEU A   1      31.122 -22.028  19.160  0.00  0.00    +0.002 C 
ATOM     20  CD2 LEU A   1      30.061 -20.974  19.512  0.00  0.00    +0.000 C 
ATOM     21  CD1 LEU A   1      31.271 -22.159  17.649  0.00  0.00    +0.000 C 
ENDBRANCH  18  19
ENDBRANCH  15  18
ENDBRANCH  11  15
ENDBRANCH  10  13
BRANCH  10  22
ATOM     22  CB  THR A   2      36.106 -25.442  18.372  0.00  0.00    +0.137 C 
ATOM     23  CG2 THR A   2      35.584 -26.844  18.821  0.00  0.00    +0.034 C 
BRANCH  22  24
ATOM     24  OG1 THR A   2      35.879 -25.256  16.978  0.00  0.00    -0.382 OA
ATOM     25  HG1 THR A   2      34.909 -25.323  16.791  0.00  0.00    +0.210 HD
ENDBRANCH  22  24
ENDBRANCH  10  22
ENDBRANCH   6  10
ENDBRANCH   5   8
BRANCH   5  26
ATOM     26  CB  GLU A   3      37.574 -21.300  16.122  0.00  0.00    +0.041 C 
BRANCH  26  27
ATOM     27  CG  GLU A   3      38.067 -19.888  15.736  0.00  0.00    +0.116 C 
BRANCH  27  28
ATOM     28  CD  GLU A   3      39.379 -19.918  15.003  0.00  0.00    +0.365 C 
ATOM     29  OE2 GLU A   3      40.161 -20.812  15.291  0.00  0.00    -0.246 OA
ATOM     30  OE1 GLU A   3      39.632 -19.021  14.177  0.00  0.00    -0.246 OA
ENDBRANCH  27  28
ENDBRANCH  26  27
ENDBRANCH   5  26
ENDBRANCH   1   5
BRANCH   2  31
ATOM     31  CA  MET A   4      33.842 -18.655  16.070  0.00  0.00    +0.149 C 
BRANCH  31  32
ATOM     32  C   MET A   4      34.281 -17.991  14.757  0.00  0.00    +0.241 C 
ATOM     33  O   MET A   4      35.481 -17.847  14.466  0.00  0.00    -0.273 OA
ATOM     34  N   SER A   5      33.283 -17.588  13.977  0.00  0.00    -0.295 N 
ATOM     35  H   SER A   5      32.313 -17.592  14.352  0.00  0.00    +0.150 HD
BRANCH  34  36
ATOM     36  CA  SER A   5      33.514 -17.141  12.608  0.00  0.00    +0.178 C 
BRANCH  36  37
ATOM     37  C   SER A   5      33.769 -15.658  12.441  0.00  0.00    +0.243 C 
ATOM     38  N   HIS A   6      33.394 -14.832  13.428  0.00  0.00    -0.298 N 
ATOM     39  H   HIS A   6      33.042 -15.223  14.325  0.00  0.00    +0.150 HD
ATOM     40  O   SER A   5      34.239 -15.226  11.371  0.00  0.00    -0.273 OA
BRANCH  38  41
ATOM     41  CA  HIS A   6      33.478 -13.379  13.248  0.00  0.00    +0.143 C 
BRANCH  41  42
ATOM     42  C   HIS A   6      34.864 -12.819  13.567  0.00  0.00    +0.227 C 
ATOM     43  O   HIS A   6      35.710 -13.504  14.166  0.00  0.00    -0.286 OA
ENDBRANCH  41  42
BRANCH  41  44
ATOM     44  CB  HIS A   6      32.411 -12.743  14.159  0.00  0.00    +0.075 C 
BRANCH  44  45
ATOM     45  CG  HIS A   6      32.697 -12.984  15.598  0.00  0.00    +0.082 A 
ATOM     46  CD2 HIS A   6      33.015 -12.126  16.600  0.00  0.00    +0.115 A 
ATOM     47  NE2 HIS A   6      33.227 -12.879  17.728  0.00  0.00    -0.221 NA
ATOM     48  CE1 HIS A   6      33.042 -14.156  17.427  0.00  0.00    +0.199 A 
ATOM     49  ND1 HIS A   6      32.680 -14.257  16.155  0.00  0.00    -0.227 NA
ENDBRANCH  44  45
ENDBRANCH  41  44
ENDBRANCH  38  41
ENDBRANCH  36  37
BRANCH  36  50
ATOM     50  CB  SER A   5      32.292 -17.510  11.737  0.00  0.00    +0.166 C 
BRANCH  50  51
ATOM     51  OG  SER A   5      31.139 -16.819  12.189  0.00  0.00    -0.380 OA
ATOM     52  H   SER A   5      31.296 -15.843  12.130  0.00  0.00    +0.211 HD
ENDBRANCH  50  51
ENDBRANCH  36  50
ENDBRANCH  34  36
ENDBRANCH  31  32
BRANCH  31  53
ATOM     53  CB  MET A   4      33.320 -17.579  17.031  0.00  0.00    +0.041 C 
BRANCH  53  54
ATOM     54  CG  MET A   4      32.532 -18.242  18.164  0.00  0.00    +0.060 C 
BRANCH  54  55
ATOM     55  SD  MET A   4      31.854 -17.070  19.302  0.00  0.00    -0.139 S 
ATOM     56  CE  MET A   4      30.479 -16.322  18.412  0.00  0.00    +0.069 C 
ENDBRANCH  54  55
ENDBRANCH  53  54
ENDBRANCH  31  53
ENDBRANCH   2  31
TORSDOF 26
REMARK  Name = ../refined-set-2016/2zz1/2zz1_pocket.pdb
REMARK  211 active torsions:
REMARK  status: ('A' for Active; 'I' for Inactive)
REMARK    1  A    between atoms: _1  and  _3
REMARK    2  A    between atoms: _3  and  _4
REMARK    3  A    between atoms: _3  and  _6
REMARK    4  A    between atoms: _6  and  _7
REMARK    5  A    between atoms: _10  and  _12
REMARK    6  A    between atoms: _12  and  _13
REMARK    7  A    between atoms: _12  and  _15
REMARK    8  A    between atoms: _15  and  _16
REMARK    9  A    between atoms: _19  and  _21
REMARK   10  A    between atoms: _21  and  _22
REMARK   11  A    between atoms: _25  and  _27
REMARK   12  A    between atoms: _27  and  _28
REMARK   13  A    between atoms: _27  and  _30
REMARK   14  A    between atoms: _30  and  _31
REMARK   15  A    between atoms: _31  and  _32
REMARK   16  A    between atoms: _34  and  _36
REMARK   17  A    between atoms: _36  and  _37
REMARK   18  A    between atoms: _36  and  _39
REMARK   19  A    between atoms: _39  and  _40
REMARK   20  A    between atoms: _43  and  _45
REMARK   21  A    between atoms: _45  and  _46
REMARK   22  A    between atoms: _45  and  _48
REMARK   23  A    between atoms: _48  and  _49
REMARK   24  A    between atoms: _49  and  _50
REMARK   25  A    between atoms: _50  and  _51
REMARK   26  A    between atoms: _51  and  _52
REMARK   27  A    between atoms: _56  and  _58
REMARK   28  A    between atoms: _58  and  _59
REMARK   29  A    between atoms: _58  and  _61
REMARK   30  A    between atoms: _61  and  _62
REMARK   31  A    between atoms: _65  and  _67
REMARK   32  A    between atoms: _67  and  _68
REMARK   33  A    between atoms: _70  and  _72
REMARK   34  A    between atoms: _72  and  _73
REMARK   35  A    between atoms: _72  and  _75
REMARK   36  A    between atoms: _75  and  _76
REMARK   37  A    between atoms: _81  and  _82
REMARK   38  A    between atoms: _85  and  _86
REMARK   39  A    between atoms: _91  and  _93
REMARK   40  A    between atoms: _93  and  _94
REMARK   41  A    between atoms: _93  and  _96
REMARK   42  A    between atoms: _96  and  _97
REMARK   43  A    between atoms: _100  and  _102
REMARK   44  A    between atoms: _102  and  _103
REMARK   45  A    between atoms: _102  and  _105
REMARK   46  A    between atoms: _105  and  _106
REMARK   47  A    between atoms: _109  and  _111
REMARK   48  A    between atoms: _111  and  _112
REMARK   49  A    between atoms: _111  and  _114
REMARK   50  A    between atoms: _114  and  _115
REMARK   51  A    between atoms: _121  and  _123
REMARK   52  A    between atoms: _123  and  _124
REMARK   53  A    between atoms: _123  and  _126
REMARK   54  A    between atoms: _126  and  _127
REMARK   55  A    between atoms: _127  and  _128
REMARK   56  A    between atoms: _128  and  _129
REMARK   57  A    between atoms: _129  and  _130
REMARK   58  A    between atoms: _134  and  _136
REMARK   59  A    between atoms: _136  and  _137
REMARK   60  A    between atoms: _136  and  _139
REMARK   61  A    between atoms: _139  and  _140
REMARK   62  A    between atoms: _143  and  _145
REMARK   63  A    between atoms: _145  and  _146
REMARK   64  A    between atoms: _145  and  _148
REMARK   65  A    between atoms: _148  and  _149
REMARK   66  A    between atoms: _154  and  _156
REMARK   67  A    between atoms: _156  and  _157
REMARK   68  A    between atoms: _156  and  _159
REMARK   69  A    between atoms: _159  and  _160
REMARK   70  A    between atoms: _163  and  _165
REMARK   71  A    between atoms: _165  and  _166
REMARK   72  A    between atoms: _165  and  _168
REMARK   73  A    between atoms: _168  and  _169
REMARK   74  A    between atoms: _172  and  _174
REMARK   75  A    between atoms: _174  and  _175
REMARK   76  A    between atoms: _174  and  _177
REMARK   77  A    between atoms: _177  and  _178
REMARK   78  A    between atoms: _178  and  _179
REMARK   79  A    between atoms: _182  and  _184
REMARK   80  A    between atoms: _184  and  _185
REMARK   81  A    between atoms: _184  and  _187
REMARK   82  A    between atoms: _187  and  _188
REMARK   83  A    between atoms: _188  and  _189
REMARK   84  A    between atoms: _191  and  _193
REMARK   85  A    between atoms: _193  and  _194
REMARK   86  A    between atoms: _193  and  _196
REMARK   87  A    between atoms: _196  and  _197
REMARK   88  A    between atoms: _199  and  _201
REMARK   89  A    between atoms: _201  and  _202
REMARK   90  A    between atoms: _201  and  _204
REMARK   91  A    between atoms: _204  and  _205
REMARK   92  A    between atoms: _210  and  _212
REMARK   93  A    between atoms: _212  and  _213
REMARK   94  A    between atoms: _216  and  _218
REMARK   95  A    between atoms: _218  and  _219
REMARK   96  A    between atoms: _218  and  _221
REMARK   97  A    between atoms: _221  and  _222
REMARK   98  A    between atoms: _225  and  _227
REMARK   99  A    between atoms: _227  and  _228
REMARK  100  A    between atoms: _227  and  _230
REMARK  101  A    between atoms: _233  and  _235
REMARK  102  A    between atoms: _235  and  _236
REMARK  103  A    between atoms: _239  and  _240
REMARK  104  A    between atoms: _245  and  _247
REMARK  105  A    between atoms: _247  and  _248
REMARK  106  A    between atoms: _247  and  _250
REMARK  107  A    between atoms: _250  and  _251
REMARK  108  A    between atoms: _253  and  _255
REMARK  109  A    between atoms: _255  and  _256
REMARK  110  A    between atoms: _255  and  _258
REMARK  111  A    between atoms: _258  and  _259
REMARK  112  A    between atoms: _262  and  _264
REMARK  113  A    between atoms: _264  and  _265
REMARK  114  A    between atoms: _264  and  _267
REMARK  115  A    between atoms: _267  and  _268
REMARK  116  A    between atoms: _268  and  _269
REMARK  117  A    between atoms: _269  and  _270
REMARK  118  A    between atoms: _279  and  _281
REMARK  119  A    between atoms: _281  and  _282
REMARK  120  A    between atoms: _281  and  _284
REMARK  121  A    between atoms: _284  and  _285
REMARK  122  A    between atoms: _288  and  _290
REMARK  123  A    between atoms: _290  and  _291
REMARK  124  A    between atoms: _290  and  _293
REMARK  125  A    between atoms: _293  and  _294
REMARK  126  A    between atoms: _297  and  _298
REMARK  127  A    between atoms: _303  and  _305
REMARK  128  A    between atoms: _305  and  _306
REMARK  129  A    between atoms: _308  and  _310
REMARK  130  A    between atoms: _310  and  _311
REMARK  131  A    between atoms: _310  and  _313
REMARK  132  A    between atoms: _316  and  _318
REMARK  133  A    between atoms: _318  and  _319
REMARK  134  A    between atoms: _321  and  _323
REMARK  135  A    between atoms: _323  and  _324
REMARK  136  A    between atoms: _327  and  _329
REMARK  137  A    between atoms: _329  and  _330
REMARK  138  A    between atoms: _329  and  _332
REMARK  139  A    between atoms: _332  and  _333
REMARK  140  A    between atoms: _333  and  _334
REMARK  141  A    between atoms: _339  and  _341
REMARK  142  A    between atoms: _341  and  _342
REMARK  143  A    between atoms: _344  and  _346
REMARK  144  A    between atoms: _346  and  _347
REMARK  145  A    between atoms: _349  and  _351
REMARK  146  A    between atoms: _351  and  _352
REMARK  147  A    between atoms: _351  and  _354
REMARK  148  A    between atoms: _354  and  _355
REMARK  149  A    between atoms: _358  and  _360
REMARK  150  A    between atoms: _360  and  _361
REMARK  151  A    between atoms: _360  and  _363
REMARK  152  A    between atoms: _366  and  _368
REMARK  153  A    between atoms: _368  and  _369
REMARK  154  A    between atoms: _371  and  _373
REMARK  155  A    between atoms: _373  and  _374
REMARK  156  A    between atoms: _373  and  _376
REMARK  157  A    between atoms: _376  and  _377
REMARK  158  A    between atoms: _377  and  _378
REMARK  159  A    between atoms: _378  and  _379
REMARK  160  A    between atoms: _388  and  _390
REMARK  161  A    between atoms: _390  and  _391
REMARK  162  A    between atoms: _390  and  _393
REMARK  163  A    between atoms: _393  and  _394
REMARK  164  A    between atoms: _396  and  _398
REMARK  165  A    between atoms: _398  and  _399
REMARK  166  A    between atoms: _398  and  _401
REMARK  167  A    between atoms: _401  and  _402
REMARK  168  A    between atoms: _405  and  _407
REMARK  169  A    between atoms: _407  and  _408
REMARK  170  A    between atoms: _407  and  _410
REMARK  171  A    between atoms: _410  and  _411
REMARK  172  A    between atoms: _416  and  _417
REMARK  173  A    between atoms: _419  and  _421
REMARK  174  A    between atoms: _421  and  _422
REMARK  175  A    between atoms: _421  and  _424
REMARK  176  A    between atoms: _424  and  _425
REMARK  177  A    between atoms: _428  and  _430
REMARK  178  A    between atoms: _430  and  _431
REMARK  179  A    between atoms: _434  and  _436
REMARK  180  A    between atoms: _436  and  _437
REMARK  181  A    between atoms: _436  and  _439
REMARK  182  A    between atoms: _439  and  _440
REMARK  183  A    between atoms: _443  and  _445
REMARK  184  A    between atoms: _445  and  _446
REMARK  185  A    between atoms: _445  and  _448
REMARK  186  A    between atoms: _448  and  _449
REMARK  187  A    between atoms: _453  and  _454
REMARK  188  A    between atoms: _459  and  _461
REMARK  189  A    between atoms: _461  and  _462
REMARK  190  A    between atoms: _461  and  _464
REMARK  191  A    between atoms: _464  and  _465
REMARK  192  A    between atoms: _465  and  _466
REMARK  193  A    between atoms: _469  and  _471
REMARK  194  A    between atoms: _471  and  _472
REMARK  195  A    between atoms: _471  and  _474
REMARK  196  A    between atoms: _474  and  _475
REMARK  197  A    between atoms: _478  and  _480
REMARK  198  A    between atoms: _480  and  _481
REMARK  199  A    between atoms: _480  and  _483
REMARK  200  A    between atoms: _483  and  _484
REMARK  201  A    between atoms: _489  and  _491
REMARK  202  A    between atoms: _491  and  _492
REMARK  203  A    between atoms: _491  and  _494
REMARK  204  A    between atoms: _494  and  _495
REMARK  205  A    between atoms: _495  and  _496
REMARK  206  A    between atoms: _496  and  _497
REMARK  207  A    between atoms: _497  and  _498
REMARK  208  A    between atoms: _502  and  _504
REMARK  209  A    between atoms: _504  and  _505
REMARK  210  A    between atoms: _504  and  _507
REMARK  211  A    between atoms: _507  and  _508
REMARK                            x       y       z     vdW  Elec       q    Type
REMARK                         _______ _______ _______ _____ _____    ______ ____
ROOT
ATOM      1  CA  ALA A   1      37.100 -14.492  17.492  0.00  0.00    +0.133 C 
ATOM      2  CB  ALA A   1      36.533 -15.546  16.548  0.00  0.00    +0.027 C 
ENDROOT
BRANCH   1   3
ATOM      3  N   ALA A   1      36.648 -13.145  17.043  0.00  0.00    -0.239 NA
ATOM      4  H   ALA A   1      36.064 -13.056  16.187  0.00  0.00    +0.142 HD
ENDBRANCH   1   3
BRANCH   1   5
ATOM      5  C   ALA A   1      38.629 -14.567  17.530  0.00  0.00    +0.224 C 
ATOM      6  O   ALA A   1      39.191 -15.383  18.236  0.00  0.00    -0.287 OA
ENDBRANCH   1   5
TORSDOF 2
REMARK  Name = ../refined-set-2016/2zz1/2zz1_pocket.pdb
REMARK  211 active torsions:
REMARK  status: ('A' for Active; 'I' for Inactive)
REMARK    1  A    between atoms: _1  and  _3
REMARK    2  A    between atoms: _3  and  _4
REMARK    3  A    between atoms: _3  and  _6
REMARK    4  A    between atoms: _6  and  _7
REMARK    5  A    between atoms: _10  and  _12
REMARK    6  A    between atoms: _12  and  _13
REMARK    7  A    between atoms: _12  and  _15
REMARK    8  A    between atoms: _15  and  _16
REMARK    9  A    between atoms: _19  and  _21
REMARK   10  A    between atoms: _21  and  _22
REMARK   11  A    between atoms: _25  and  _27
REMARK   12  A    between atoms: _27  and  _28
REMARK   13  A    between atoms: _27  and  _30
REMARK   14  A    between atoms: _30  and  _31
REMARK   15  A    between atoms: _31  and  _32
REMARK   16  A    between atoms: _34  and  _36
REMARK   17  A    between atoms: _36  and  _37
REMARK   18  A    between atoms: _36  and  _39
REMARK   19  A    between atoms: _39  and  _40
REMARK   20  A    between atoms: _43  and  _45
REMARK   21  A    between atoms: _45  and  _46
REMARK   22  A    between atoms: _45  and  _48
REMARK   23  A    between atoms: _48  and  _49
REMARK   24  A    between atoms: _49  and  _50
REMARK   25  A    between atoms: _50  and  _51
REMARK   26  A    between atoms: _51  and  _52
REMARK   27  A    between atoms: _56  and  _58
REMARK   28  A    between atoms: _58  and  _59
REMARK   29  A    between atoms: _58  and  _61
REMARK   30  A    between atoms: _61  and  _62
REMARK   31  A    between atoms: _65  and  _67
REMARK   32  A    between atoms: _67  and  _68
REMARK   33  A    between atoms: _70  and  _72
REMARK   34  A    between atoms: _72  and  _73
REMARK   35  A    between atoms: _72  and  _75
REMARK   36  A    between atoms: _75  and  _76
REMARK   37  A    between atoms: _81  and  _82
REMARK   38  A    between atoms: _85  and  _86
REMARK   39  A    between atoms: _91  and  _93
REMARK   40  A    between atoms: _93  and  _94
REMARK   41  A    between atoms: _93  and  _96
REMARK   42  A    between atoms: _96  and  _97
REMARK   43  A    between atoms: _100  and  _102
REMARK   44  A    between atoms: _102  and  _103
REMARK   45  A    between atoms: _102  and  _105
REMARK   46  A    between atoms: _105  and  _106
REMARK   47  A    between atoms: _109  and  _111
REMARK   48  A    between atoms: _111  and  _112
REMARK   49  A    between atoms: _111  and  _114
REMARK   50  A    between atoms: _114  and  _115
REMARK   51  A    between atoms: _121  and  _123
REMARK   52  A    between atoms: _123  and  _124
REMARK   53  A    between atoms: _123  and  _126
REMARK   54  A    between atoms: _126  and  _127
REMARK   55  A    between atoms: _127  and  _128
REMARK   56  A    between atoms: _128  and  _129
REMARK   57  A    between atoms: _129  and  _130
REMARK   58  A    between atoms: _134  and  _136
REMARK   59  A    between atoms: _136  and  _137
REMARK   60  A    between atoms: _136  and  _139
REMARK   61  A    between atoms: _139  and  _140
REMARK   62  A    between atoms: _143  and  _145
REMARK   63  A    between atoms: _145  and  _146
REMARK   64  A    between atoms: _145  and  _148
REMARK   65  A    between atoms: _148  and  _149
REMARK   66  A    between atoms: _154  and  _156
REMARK   67  A    between atoms: _156  and  _157
REMARK   68  A    between atoms: _156  and  _159
REMARK   69  A    between atoms: _159  and  _160
REMARK   70  A    between atoms: _163  and  _165
REMARK   71  A    between atoms: _165  and  _166
REMARK   72  A    between atoms: _165  and  _168
REMARK   73  A    between atoms: _168  and  _169
REMARK   74  A    between atoms: _172  and  _174
REMARK   75  A    between atoms: _174  and  _175
REMARK   76  A    between atoms: _174  and  _177
REMARK   77  A    between atoms: _177  and  _178
REMARK   78  A    between atoms: _178  and  _179
REMARK   79  A    between atoms: _182  and  _184
REMARK   80  A    between atoms: _184  and  _185
REMARK   81  A    between atoms: _184  and  _187
REMARK   82  A    between atoms: _187  and  _188
REMARK   83  A    between atoms: _188  and  _189
REMARK   84  A    between atoms: _191  and  _193
REMARK   85  A    between atoms: _193  and  _194
REMARK   86  A    between atoms: _193  and  _196
REMARK   87  A    between atoms: _196  and  _197
REMARK   88  A    between atoms: _199  and  _201
REMARK   89  A    between atoms: _201  and  _202
REMARK   90  A    between atoms: _201  and  _204
REMARK   91  A    between atoms: _204  and  _205
REMARK   92  A    between atoms: _210  and  _212
REMARK   93  A    between atoms: _212  and  _213
REMARK   94  A    between atoms: _216  and  _218
REMARK   95  A    between atoms: _218  and  _219
REMARK   96  A    between atoms: _218  and  _221
REMARK   97  A    between atoms: _221  and  _222
REMARK   98  A    between atoms: _225  and  _227
REMARK   99  A    between atoms: _227  and  _228
REMARK  100  A    between atoms: _227  and  _230
REMARK  101  A    between atoms: _233  and  _235
REMARK  102  A    between atoms: _235  and  _236
REMARK  103  A    between atoms: _239  and  _240
REMARK  104  A    between atoms: _245  and  _247
REMARK  105  A    between atoms: _247  and  _248
REMARK  106  A    between atoms: _247  and  _250
REMARK  107  A    between atoms: _250  and  _251
REMARK  108  A    between atoms: _253  and  _255
REMARK  109  A    between atoms: _255  and  _256
REMARK  110  A    between atoms: _255  and  _258
REMARK  111  A    between atoms: _258  and  _259
REMARK  112  A    between atoms: _262  and  _264
REMARK  113  A    between atoms: _264  and  _265
REMARK  114  A    between atoms: _264  and  _267
REMARK  115  A    between atoms: _267  and  _268
REMARK  116  A    between atoms: _268  and  _269
REMARK  117  A    between atoms: _269  and  _270
REMARK  118  A    between atoms: _279  and  _281
REMARK  119  A    between atoms: _281  and  _282
REMARK  120  A    between atoms: _281  and  _284
REMARK  121  A    between atoms: _284  and  _285
REMARK  122  A    between atoms: _288  and  _290
REMARK  123  A    between atoms: _290  and  _291
REMARK  124  A    between atoms: _290  and  _293
REMARK  125  A    between atoms: _293  and  _294
REMARK  126  A    between atoms: _297  and  _298
REMARK  127  A    between atoms: _303  and  _305
REMARK  128  A    between atoms: _305  and  _306
REMARK  129  A    between atoms: _308  and  _310
REMARK  130  A    between atoms: _310  and  _311
REMARK  131  A    between atoms: _310  and  _313
REMARK  132  A    between atoms: _316  and  _318
REMARK  133  A    between atoms: _318  and  _319
REMARK  134  A    between atoms: _321  and  _323
REMARK  135  A    between atoms: _323  and  _324
REMARK  136  A    between atoms: _327  and  _329
REMARK  137  A    between atoms: _329  and  _330
REMARK  138  A    between atoms: _329  and  _332
REMARK  139  A    between atoms: _332  and  _333
REMARK  140  A    between atoms: _333  and  _334
REMARK  141  A    between atoms: _339  and  _341
REMARK  142  A    between atoms: _341  and  _342
REMARK  143  A    between atoms: _344  and  _346
REMARK  144  A    between atoms: _346  and  _347
REMARK  145  A    between atoms: _349  and  _351
REMARK  146  A    between atoms: _351  and  _352
REMARK  147  A    between atoms: _351  and  _354
REMARK  148  A    between atoms: _354  and  _355
REMARK  149  A    between atoms: _358  and  _360
REMARK  150  A    between atoms: _360  and  _361
REMARK  151  A    between atoms: _360  and  _363
REMARK  152  A    between atoms: _366  and  _368
REMARK  153  A    between atoms: _368  and  _369
REMARK  154  A    between atoms: _371  and  _373
REMARK  155  A    between atoms: _373  and  _374
REMARK  156  A    between atoms: _373  and  _376
REMARK  157  A    between atoms: _376  and  _377
REMARK  158  A    between atoms: _377  and  _378
REMARK  159  A    between atoms: _378  and  _379
REMARK  160  A    between atoms: _388  and  _390
REMARK  161  A    between atoms: _390  and  _391
REMARK  162  A    between atoms: _390  and  _393
REMARK  163  A    between atoms: _393  and  _394
REMARK  164  A    between atoms: _396  and  _398
REMARK  165  A    between atoms: _398  and  _399
REMARK  166  A    between atoms: _398  and  _401
REMARK  167  A    between atoms: _401  and  _402
REMARK  168  A    between atoms: _405  and  _407
REMARK  169  A    between atoms: _407  and  _408
REMARK  170  A    between atoms: _407  and  _410
REMARK  171  A    between atoms: _410  and  _411
REMARK  172  A    between atoms: _416  and  _417
REMARK  173  A    between atoms: _419  and  _421
REMARK  174  A    between atoms: _421  and  _422
REMARK  175  A    between atoms: _421  and  _424
REMARK  176  A    between atoms: _424  and  _425
REMARK  177  A    between atoms: _428  and  _430
REMARK  178  A    between atoms: _430  and  _431
REMARK  179  A    between atoms: _434  and  _436
REMARK  180  A    between atoms: _436  and  _437
REMARK  181  A    between atoms: _436  and  _439
REMARK  182  A    between atoms: _439  and  _440
REMARK  183  A    between atoms: _443  and  _445
REMARK  184  A    between atoms: _445  and  _446
REMARK  185  A    between atoms: _445  and  _448
REMARK  186  A    between atoms: _448  and  _449
REMARK  187  A    between atoms: _453  and  _454
REMARK  188  A    between atoms: _459  and  _461
REMARK  189  A    between atoms: _461  and  _462
REMARK  190  A    between atoms: _461  and  _464
REMARK  191  A    between atoms: _464  and  _465
REMARK  192  A    between atoms: _465  and  _466
REMARK  193  A    between atoms: _469  and  _471
REMARK  194  A    between atoms: _471  and  _472
REMARK  195  A    between atoms: _471  and  _474
REMARK  196  A    between atoms: _474  and  _475
REMARK  197  A    between atoms: _478  and  _480
REMARK  198  A    between atoms: _480  and  _481
REMARK  199  A    between atoms: _480  and  _483
REMARK  200  A    between atoms: _483  and  _484
REMARK  201  A    between atoms: _489  and  _491
REMARK  202  A    between atoms: _491  and  _492
REMARK  203  A    between atoms: _491  and  _494
REMARK  204  A    between atoms: _494  and  _495
REMARK  205  A    between atoms: _495  and  _496
REMARK  206  A    between atoms: _496  and  _497
REMARK  207  A    between atoms: _497  and  _498
REMARK  208  A    between atoms: _502  and  _504
REMARK  209  A    between atoms: _504  and  _505
REMARK  210  A    between atoms: _504  and  _507
REMARK  211  A    between atoms: _507  and  _508
REMARK                            x       y       z     vdW  Elec       q    Type
REMARK                         _______ _______ _______ _____ _____    ______ ____
ROOT
ATOM      1  CA  ILE A   1      38.907 -17.678  21.131  0.00  0.00    +0.133 C 
ENDROOT
BRANCH   1   2
ATOM      2  N   ILE A   1      39.360 -16.285  21.382  0.00  0.00    -0.239 NA
ATOM      3  H   ILE A   1      38.880 -15.475  20.940  0.00  0.00    +0.142 HD
ENDBRANCH   1   2
BRANCH   1   4
ATOM      4  CB  ILE A   1      37.524 -17.692  20.474  0.00  0.00    +0.023 C 
ATOM      5  CG2 ILE A   1      37.200 -19.074  19.947  0.00  0.00    +0.002 C 
BRANCH   4   6
ATOM      6  CG1 ILE A   1      36.451 -17.211  21.461  0.00  0.00    +0.002 C 
ATOM      7  CD1 ILE A   1      35.058 -17.040  20.819  0.00  0.00    +0.000 C 
ENDBRANCH   4   6
ENDBRANCH   1   4
BRANCH   1   8
ATOM      8  C   ILE A   1      39.867 -18.457  20.261  0.00  0.00    +0.224 C 
ATOM      9  O   ILE A   1      40.132 -19.632  20.522  0.00  0.00    -0.287 OA
ENDBRANCH   1   8
TORSDOF 4
REMARK  Name = ../refined-set-2016/2zz1/2zz1_pocket.pdb
REMARK  211 active torsions:
REMARK  status: ('A' for Active; 'I' for Inactive)
REMARK    1  A    between atoms: _1  and  _3
REMARK    2  A    between atoms: _3  and  _4
REMARK    3  A    between atoms: _3  and  _6
REMARK    4  A    between atoms: _6  and  _7
REMARK    5  A    between atoms: _10  and  _12
REMARK    6  A    between atoms: _12  and  _13
REMARK    7  A    between atoms: _12  and  _15
REMARK    8  A    between atoms: _15  and  _16
REMARK    9  A    between atoms: _19  and  _21
REMARK   10  A    between atoms: _21  and  _22
REMARK   11  A    between atoms: _25  and  _27
REMARK   12  A    between atoms: _27  and  _28
REMARK   13  A    between atoms: _27  and  _30
REMARK   14  A    between atoms: _30  and  _31
REMARK   15  A    between atoms: _31  and  _32
REMARK   16  A    between atoms: _34  and  _36
REMARK   17  A    between atoms: _36  and  _37
REMARK   18  A    between atoms: _36  and  _39
REMARK   19  A    between atoms: _39  and  _40
REMARK   20  A    between atoms: _43  and  _45
REMARK   21  A    between atoms: _45  and  _46
REMARK   22  A    between atoms: _45  and  _48
REMARK   23  A    between atoms: _48  and  _49
REMARK   24  A    between atoms: _49  and  _50
REMARK   25  A    between atoms: _50  and  _51
REMARK   26  A    between atoms: _51  and  _52
REMARK   27  A    between atoms: _56  and  _58
REMARK   28  A    between atoms: _58  and  _59
REMARK   29  A    between atoms: _58  and  _61
REMARK   30  A    between atoms: _61  and  _62
REMARK   31  A    between atoms: _65  and  _67
REMARK   32  A    between atoms: _67  and  _68
REMARK   33  A    between atoms: _70  and  _72
REMARK   34  A    between atoms: _72  and  _73
REMARK   35  A    between atoms: _72  and  _75
REMARK   36  A    between atoms: _75  and  _76
REMARK   37  A    between atoms: _81  and  _82
REMARK   38  A    between atoms: _85  and  _86
REMARK   39  A    between atoms: _91  and  _93
REMARK   40  A    between atoms: _93  and  _94
REMARK   41  A    between atoms: _93  and  _96
REMARK   42  A    between atoms: _96  and  _97
REMARK   43  A    between atoms: _100  and  _102
REMARK   44  A    between atoms: _102  and  _103
REMARK   45  A    between atoms: _102  and  _105
REMARK   46  A    between atoms: _105  and  _106
REMARK   47  A    between atoms: _109  and  _111
REMARK   48  A    between atoms: _111  and  _112
REMARK   49  A    between atoms: _111  and  _114
REMARK   50  A    between atoms: _114  and  _115
REMARK   51  A    between atoms: _121  and  _123
REMARK   52  A    between atoms: _123  and  _124
REMARK   53  A    between atoms: _123  and  _126
REMARK   54  A    between atoms: _126  and  _127
REMARK   55  A    between atoms: _127  and  _128
REMARK   56  A    between atoms: _128  and  _129
REMARK   57  A    between atoms: _129  and  _130
REMARK   58  A    between atoms: _134  and  _136
REMARK   59  A    between atoms: _136  and  _137
REMARK   60  A    between atoms: _136  and  _139
REMARK   61  A    between atoms: _139  and  _140
REMARK   62  A    between atoms: _143  and  _145
REMARK   63  A    between atoms: _145  and  _146
REMARK   64  A    between atoms: _145  and  _148
REMARK   65  A    between atoms: _148  and  _149
REMARK   66  A    between atoms: _154  and  _156
REMARK   67  A    between atoms: _156  and  _157
REMARK   68  A    between atoms: _156  and  _159
REMARK   69  A    between atoms: _159  and  _160
REMARK   70  A    between atoms: _163  and  _165
REMARK   71  A    between atoms: _165  and  _166
REMARK   72  A    between atoms: _165  and  _168
REMARK   73  A    between atoms: _168  and  _169
REMARK   74  A    between atoms: _172  and  _174
REMARK   75  A    between atoms: _174  and  _175
REMARK   76  A    between atoms: _174  and  _177
REMARK   77  A    between atoms: _177  and  _178
REMARK   78  A    between atoms: _178  and  _179
REMARK   79  A    between atoms: _182  and  _184
REMARK   80  A    between atoms: _184  and  _185
REMARK   81  A    between atoms: _184  and  _187
REMARK   82  A    between atoms: _187  and  _188
REMARK   83  A    between atoms: _188  and  _189
REMARK   84  A    between atoms: _191  and  _193
REMARK   85  A    between atoms: _193  and  _194
REMARK   86  A    between atoms: _193  and  _196
REMARK   87  A    between atoms: _196  and  _197
REMARK   88  A    between atoms: _199  and  _201
REMARK   89  A    between atoms: _201  and  _202
REMARK   90  A    between atoms: _201  and  _204
REMARK   91  A    between atoms: _204  and  _205
REMARK   92  A    between atoms: _210  and  _212
REMARK   93  A    between atoms: _212  and  _213
REMARK   94  A    between atoms: _216  and  _218
REMARK   95  A    between atoms: _218  and  _219
REMARK   96  A    between atoms: _218  and  _221
REMARK   97  A    between atoms: _221  and  _222
REMARK   98  A    between atoms: _225  and  _227
REMARK   99  A    between atoms: _227  and  _228
REMARK  100  A    between atoms: _227  and  _230
REMARK  101  A    between atoms: _233  and  _235
REMARK  102  A    between atoms: _235  and  _236
REMARK  103  A    between atoms: _239  and  _240
REMARK  104  A    between atoms: _245  and  _247
REMARK  105  A    between atoms: _247  and  _248
REMARK  106  A    between atoms: _247  and  _250
REMARK  107  A    between atoms: _250  and  _251
REMARK  108  A    between atoms: _253  and  _255
REMARK  109  A    between atoms: _255  and  _256
REMARK  110  A    between atoms: _255  and  _258
REMARK  111  A    between atoms: _258  and  _259
REMARK  112  A    between atoms: _262  and  _264
REMARK  113  A    between atoms: _264  and  _265
REMARK  114  A    between atoms: _264  and  _267
REMARK  115  A    between atoms: _267  and  _268
REMARK  116  A    between atoms: _268  and  _269
REMARK  117  A    between atoms: _269  and  _270
REMARK  118  A    between atoms: _279  and  _281
REMARK  119  A    between atoms: _281  and  _282
REMARK  120  A    between atoms: _281  and  _284
REMARK  121  A    between atoms: _284  and  _285
REMARK  122  A    between atoms: _288  and  _290
REMARK  123  A    between atoms: _290  and  _291
REMARK  124  A    between atoms: _290  and  _293
REMARK  125  A    between atoms: _293  and  _294
REMARK  126  A    between atoms: _297  and  _298
REMARK  127  A    between atoms: _303  and  _305
REMARK  128  A    between atoms: _305  and  _306
REMARK  129  A    between atoms: _308  and  _310
REMARK  130  A    between atoms: _310  and  _311
REMARK  131  A    between atoms: _310  and  _313
REMARK  132  A    between atoms: _316  and  _318
REMARK  133  A    between atoms: _318  and  _319
REMARK  134  A    between atoms: _321  and  _323
REMARK  135  A    between atoms: _323  and  _324
REMARK  136  A    between atoms: _327  and  _329
REMARK  137  A    between atoms: _329  and  _330
REMARK  138  A    between atoms: _329  and  _332
REMARK  139  A    between atoms: _332  and  _333
REMARK  140  A    between atoms: _333  and  _334
REMARK  141  A    between atoms: _339  and  _341
REMARK  142  A    between atoms: _341  and  _342
REMARK  143  A    between atoms: _344  and  _346
REMARK  144  A    between atoms: _346  and  _347
REMARK  145  A    between atoms: _349  and  _351
REMARK  146  A    between atoms: _351  and  _352
REMARK  147  A    between atoms: _351  and  _354
REMARK  148  A    between atoms: _354  and  _355
REMARK  149  A    between atoms: _358  and  _360
REMARK  150  A    between atoms: _360  and  _361
REMARK  151  A    between atoms: _360  and  _363
REMARK  152  A    between atoms: _366  and  _368
REMARK  153  A    between atoms: _368  and  _369
REMARK  154  A    between atoms: _371  and  _373
REMARK  155  A    between atoms: _373  and  _374
REMARK  156  A    between atoms: _373  and  _376
REMARK  157  A    between atoms: _376  and  _377
REMARK  158  A    between atoms: _377  and  _378
REMARK  159  A    between atoms: _378  and  _379
REMARK  160  A    between atoms: _388  and  _390
REMARK  161  A    between atoms: _390  and  _391
REMARK  162  A    between atoms: _390  and  _393
REMARK  163  A    between atoms: _393  and  _394
REMARK  164  A    between atoms: _396  and  _398
REMARK  165  A    between atoms: _398  and  _399
REMARK  166  A    between atoms: _398  and  _401
REMARK  167  A    between atoms: _401  and  _402
REMARK  168  A    between atoms: _405  and  _407
REMARK  169  A    between atoms: _407  and  _408
REMARK  170  A    between atoms: _407  and  _410
REMARK  171  A    between atoms: _410  and  _411
REMARK  172  A    between atoms: _416  and  _417
REMARK  173  A    between atoms: _419  and  _421
REMARK  174  A    between atoms: _421  and  _422
REMARK  175  A    between atoms: _421  and  _424
REMARK  176  A    between atoms: _424  and  _425
REMARK  177  A    between atoms: _428  and  _430
REMARK  178  A    between atoms: _430  and  _431
REMARK  179  A    between atoms: _434  and  _436
REMARK  180  A    between atoms: _436  and  _437
REMARK  181  A    between atoms: _436  and  _439
REMARK  182  A    between atoms: _439  and  _440
REMARK  183  A    between atoms: _443  and  _445
REMARK  184  A    between atoms: _445  and  _446
REMARK  185  A    between atoms: _445  and  _448
REMARK  186  A    between atoms: _448  and  _449
REMARK  187  A    between atoms: _453  and  _454
REMARK  188  A    between atoms: _459  and  _461
REMARK  189  A    between atoms: _461  and  _462
REMARK  190  A    between atoms: _461  and  _464
REMARK  191  A    between atoms: _464  and  _465
REMARK  192  A    between atoms: _465  and  _466
REMARK  193  A    between atoms: _469  and  _471
REMARK  194  A    between atoms: _471  and  _472
REMARK  195  A    between atoms: _471  and  _474
REMARK  196  A    between atoms: _474  and  _475
REMARK  197  A    between atoms: _478  and  _480
REMARK  198  A    between atoms: _480  and  _481
REMARK  199  A    between atoms: _480  and  _483
REMARK  200  A    between atoms: _483  and  _484
REMARK  201  A    between atoms: _489  and  _491
REMARK  202  A    between atoms: _491  and  _492
REMARK  203  A    between atoms: _491  and  _494
REMARK  204  A    between atoms: _494  and  _495
REMARK  205  A    between atoms: _495  and  _496
REMARK  206  A    between atoms: _496  and  _497
REMARK  207  A    between atoms: _497  and  _498
REMARK  208  A    between atoms: _502  and  _504
REMARK  209  A    between atoms: _504  and  _505
REMARK  210  A    between atoms: _504  and  _507
REMARK  211  A    between atoms: _507  and  _508
REMARK                            x       y       z     vdW  Elec       q    Type
REMARK                         _______ _______ _______ _____ _____    ______ ____
ROOT
ATOM      1  C   SER A   4      34.582 -20.050   6.951  0.00  0.00    +0.243 C 
ATOM      2  N   THR A   5      34.646 -18.985   7.740  0.00  0.00    -0.295 N 
ATOM      3  H   THR A   5      34.113 -18.982   8.633  0.00  0.00    +0.150 HD
ATOM      4  O   SER A   4      35.246 -20.146   5.905  0.00  0.00    -0.273 OA
ENDROOT
BRANCH   2   5
ATOM      5  CA  THR A   5      35.455 -17.807   7.380  0.00  0.00    +0.176 C 
BRANCH   5   6
ATOM      6  C   THR A   5      36.973 -18.055   7.486  0.00  0.00    +0.243 C 
ATOM      7  N   ARG A   6      37.380 -19.165   8.102  0.00  0.00    -0.298 N 
ATOM      8  H   ARG A   6      36.672 -19.804   8.517  0.00  0.00    +0.150 HD
ATOM      9  O   THR A   5      37.778 -17.209   7.038  0.00  0.00    -0.273 OA
BRANCH   7  10
ATOM     10  CA  ARG A   6      38.802 -19.505   8.208  0.00  0.00    +0.137 C 
BRANCH  10  11
ATOM     11  C   ARG A   6      39.007 -20.990   7.885  0.00  0.00    +0.227 C 
ATOM     12  O   ARG A   6      39.227 -21.820   8.792  0.00  0.00    -0.286 OA
ENDBRANCH  10  11
BRANCH  10  13
ATOM     13  CB  ARG A   6      39.327 -19.193   9.624  0.00  0.00    +0.031 C 
BRANCH  13  14
ATOM     14  CG  ARG A   6      39.156 -17.727  10.030  0.00  0.00    +0.045 C 
BRANCH  14  15
ATOM     15  CD  ARG A   6      39.912 -17.416  11.351  0.00  0.00    +0.174 C 
BRANCH  15  16
ATOM     16  NE  ARG A   6      39.349 -16.143  11.764  0.00  0.00    -0.265 N 
ATOM     17  CZ  ARG A   6      38.291 -15.979  12.558  0.00  0.00    +0.342 C 
ATOM     18  NH2 ARG A   6      37.791 -16.986  13.282  0.00  0.00    -0.292 N 
ATOM     19 HH21 ARG A   6      36.964 -16.827  13.893  0.00  0.00    +0.255 HD
ATOM     20 HH22 ARG A   6      38.229 -17.928  13.235  0.00  0.00    +0.255 HD
ATOM     21  NH1 ARG A   6      37.766 -14.763  12.636  0.00  0.00    -0.292 N 
ATOM     22 HH11 ARG A   6      36.940 -14.591  13.244  0.00  0.00    +0.255 HD
ATOM     23 HH12 ARG A   6      38.181 -13.982  12.089  0.00  0.00    +0.255 HD
ATOM     24  HE  ARG A   6      39.812 -15.282  11.409  0.00  0.00    +0.259 HD
ENDBRANCH  15  16
ENDBRANCH  14  15
ENDBRANCH  13  14
ENDBRANCH  10  13
ENDBRANCH   7  10
ENDBRANCH   5   6
BRANCH   5  25
ATOM     25  CB  THR A   5      35.089 -16.639   8.284  0.00  0.00    +0.137 C 
ATOM     26  CG2 THR A   5      33.657 -16.186   7.980  0.00  0.00    +0.034 C 
BRANCH  25  27
ATOM     27  OG1 THR A   5      35.147 -17.085   9.647  0.00  0.00    -0.382 OA
ATOM     28  HG1 THR A   5      34.911 -16.335  10.249  0.00  0.00    +0.210 HD
ENDBRANCH  25  27
ENDBRANCH   5  25
ENDBRANCH   2   5
BRANCH   1  29
ATOM     29  CA  SER A   4      33.640 -21.163   7.404  0.00  0.00    +0.178 C 
BRANCH  29  32
ATOM     30  C   PRO A   3      34.562 -21.420   9.665  0.00  0.00    +0.241 C 
ATOM     31  O   PRO A   3      35.688 -21.699   9.239  0.00  0.00    -0.273 OA
ATOM     32  N   SER A   4      33.515 -21.152   8.880  0.00  0.00    -0.295 N 
ATOM     33  H   SER A   4      32.595 -20.932   9.313  0.00  0.00    +0.150 HD
BRANCH  30  39
ATOM     34  C   GLY A   2      33.727 -23.463  12.261  0.00  0.00    +0.246 C 
ATOM     35  N   PRO A   3      34.630 -22.489  12.021  0.00  0.00    -0.272 N 
ATOM     36  CD  PRO A   3      35.906 -22.310  12.761  0.00  0.00    +0.094 C 
ATOM     37  CG  PRO A   3      36.455 -20.958  12.193  0.00  0.00    +0.024 C 
ATOM     38  CB  PRO A   3      35.220 -20.213  11.767  0.00  0.00    +0.031 C 
ATOM     39  CA  PRO A   3      34.309 -21.311  11.177  0.00  0.00    +0.152 C 
ATOM     40  O   GLY A   2      32.733 -23.645  11.535  0.00  0.00    -0.273 OA
BRANCH  34  41
ATOM     41  CA  GLY A   2      33.938 -24.310  13.510  0.00  0.00    +0.176 C 
BRANCH  41  44
ATOM     42  C   VAL A   1      32.412 -25.483  15.012  0.00  0.00    +0.238 C 
ATOM     43  O   VAL A   1      33.111 -25.234  15.995  0.00  0.00    -0.274 OA
ATOM     44  N   GLY A   2      32.726 -25.088  13.772  0.00  0.00    -0.296 N 
ATOM     45  H   GLY A   2      32.098 -25.338  12.981  0.00  0.00    +0.150 HD
BRANCH  42  46
ATOM     46  CA  VAL A   1      31.099 -26.242  15.164  0.00  0.00    +0.145 C 
BRANCH  46  47
ATOM     47  CB  VAL A   1      30.050 -25.272  15.802  0.00  0.00    +0.025 C 
ATOM     48  CG2 VAL A   1      28.811 -26.012  16.273  0.00  0.00    +0.002 C 
ATOM     49  CG1 VAL A   1      29.657 -24.167  14.816  0.00  0.00    +0.002 C 
ENDBRANCH  46  47
BRANCH  46  50
ATOM     50  N   VAL A   1      31.363 -27.388  16.036  0.00  0.00    -0.238 NA
ATOM     51  H   VAL A   1      31.783 -27.224  16.973  0.00  0.00    +0.142 HD
ENDBRANCH  46  50
ENDBRANCH  42  46
ENDBRANCH  41  44
ENDBRANCH  34  41
ENDBRANCH  30  39
ENDBRANCH  29  32
BRANCH  29  52
ATOM     52  CB  SER A   4      32.264 -20.941   6.817  0.00  0.00    +0.166 C 
BRANCH  52  53
ATOM     53  OG  SER A   4      32.329 -20.760   5.418  0.00  0.00    -0.380 OA
ATOM     54  H   SER A   4      32.725 -21.565   5.000  0.00  0.00    +0.211 HD
ENDBRANCH  52  53
ENDBRANCH  29  52
ENDBRANCH   1  29
TORSDOF 20
REMARK  Name = ../refined-set-2016/2zz1/2zz1_pocket.pdb
REMARK  211 active torsions:
REMARK  status: ('A' for Active; 'I' for Inactive)
REMARK    1  A    between atoms: _1  and  _3
REMARK    2  A    between atoms: _3  and  _4
REMARK    3  A    between atoms: _3  and  _6
REMARK    4  A    between atoms: _6  and  _7
REMARK    5  A    between atoms: _10  and  _12
REMARK    6  A    between atoms: _12  and  _13
REMARK    7  A    between atoms: _12  and  _15
REMARK    8  A    between atoms: _15  and  _16
REMARK    9  A    between atoms: _19  and  _21
REMARK   10  A    between atoms: _21  and  _22
REMARK   11  A    between atoms: _25  and  _27
REMARK   12  A    between atoms: _27  and  _28
REMARK   13  A    between atoms: _27  and  _30
REMARK   14  A    between atoms: _30  and  _31
REMARK   15  A    between atoms: _31  and  _32
REMARK   16  A    between atoms: _34  and  _36
REMARK   17  A    between atoms: _36  and  _37
REMARK   18  A    between atoms: _36  and  _39
REMARK   19  A    between atoms: _39  and  _40
REMARK   20  A    between atoms: _43  and  _45
REMARK   21  A    between atoms: _45  and  _46
REMARK   22  A    between atoms: _45  and  _48
REMARK   23  A    between atoms: _48  and  _49
REMARK   24  A    between atoms: _49  and  _50
REMARK   25  A    between atoms: _50  and  _51
REMARK   26  A    between atoms: _51  and  _52
REMARK   27  A    between atoms: _56  and  _58
REMARK   28  A    between atoms: _58  and  _59
REMARK   29  A    between atoms: _58  and  _61
REMARK   30  A    between atoms: _61  and  _62
REMARK   31  A    between atoms: _65  and  _67
REMARK   32  A    between atoms: _67  and  _68
REMARK   33  A    between atoms: _70  and  _72
REMARK   34  A    between atoms: _72  and  _73
REMARK   35  A    between atoms: _72  and  _75
REMARK   36  A    between atoms: _75  and  _76
REMARK   37  A    between atoms: _81  and  _82
REMARK   38  A    between atoms: _85  and  _86
REMARK   39  A    between atoms: _91  and  _93
REMARK   40  A    between atoms: _93  and  _94
REMARK   41  A    between atoms: _93  and  _96
REMARK   42  A    between atoms: _96  and  _97
REMARK   43  A    between atoms: _100  and  _102
REMARK   44  A    between atoms: _102  and  _103
REMARK   45  A    between atoms: _102  and  _105
REMARK   46  A    between atoms: _105  and  _106
REMARK   47  A    between atoms: _109  and  _111
REMARK   48  A    between atoms: _111  and  _112
REMARK   49  A    between atoms: _111  and  _114
REMARK   50  A    between atoms: _114  and  _115
REMARK   51  A    between atoms: _121  and  _123
REMARK   52  A    between atoms: _123  and  _124
REMARK   53  A    between atoms: _123  and  _126
REMARK   54  A    between atoms: _126  and  _127
REMARK   55  A    between atoms: _127  and  _128
REMARK   56  A    between atoms: _128  and  _129
REMARK   57  A    between atoms: _129  and  _130
REMARK   58  A    between atoms: _134  and  _136
REMARK   59  A    between atoms: _136  and  _137
REMARK   60  A    between atoms: _136  and  _139
REMARK   61  A    between atoms: _139  and  _140
REMARK   62  A    between atoms: _143  and  _145
REMARK   63  A    between atoms: _145  and  _146
REMARK   64  A    between atoms: _145  and  _148
REMARK   65  A    between atoms: _148  and  _149
REMARK   66  A    between atoms: _154  and  _156
REMARK   67  A    between atoms: _156  and  _157
REMARK   68  A    between atoms: _156  and  _159
REMARK   69  A    between atoms: _159  and  _160
REMARK   70  A    between atoms: _163  and  _165
REMARK   71  A    between atoms: _165  and  _166
REMARK   72  A    between atoms: _165  and  _168
REMARK   73  A    between atoms: _168  and  _169
REMARK   74  A    between atoms: _172  and  _174
REMARK   75  A    between atoms: _174  and  _175
REMARK   76  A    between atoms: _174  and  _177
REMARK   77  A    between atoms: _177  and  _178
REMARK   78  A    between atoms: _178  and  _179
REMARK   79  A    between atoms: _182  and  _184
REMARK   80  A    between atoms: _184  and  _185
REMARK   81  A    between atoms: _184  and  _187
REMARK   82  A    between atoms: _187  and  _188
REMARK   83  A    between atoms: _188  and  _189
REMARK   84  A    between atoms: _191  and  _193
REMARK   85  A    between atoms: _193  and  _194
REMARK   86  A    between atoms: _193  and  _196
REMARK   87  A    between atoms: _196  and  _197
REMARK   88  A    between atoms: _199  and  _201
REMARK   89  A    between atoms: _201  and  _202
REMARK   90  A    between atoms: _201  and  _204
REMARK   91  A    between atoms: _204  and  _205
REMARK   92  A    between atoms: _210  and  _212
REMARK   93  A    between atoms: _212  and  _213
REMARK   94  A    between atoms: _216  and  _218
REMARK   95  A    between atoms: _218  and  _219
REMARK   96  A    between atoms: _218  and  _221
REMARK   97  A    between atoms: _221  and  _222
REMARK   98  A    between atoms: _225  and  _227
REMARK   99  A    between atoms: _227  and  _228
REMARK  100  A    between atoms: _227  and  _230
REMARK  101  A    between atoms: _233  and  _235
REMARK  102  A    between atoms: _235  and  _236
REMARK  103  A    between atoms: _239  and  _240
REMARK  104  A    between atoms: _245  and  _247
REMARK  105  A    between atoms: _247  and  _248
REMARK  106  A    between atoms: _247  and  _250
REMARK  107  A    between atoms: _250  and  _251
REMARK  108  A    between atoms: _253  and  _255
REMARK  109  A    between atoms: _255  and  _256
REMARK  110  A    between atoms: _255  and  _258
REMARK  111  A    between atoms: _258  and  _259
REMARK  112  A    between atoms: _262  and  _264
REMARK  113  A    between atoms: _264  and  _265
REMARK  114  A    between atoms: _264  and  _267
REMARK  115  A    between atoms: _267  and  _268
REMARK  116  A    between atoms: _268  and  _269
REMARK  117  A    between atoms: _269  and  _270
REMARK  118  A    between atoms: _279  and  _281
REMARK  119  A    between atoms: _281  and  _282
REMARK  120  A    between atoms: _281  and  _284
REMARK  121  A    between atoms: _284  and  _285
REMARK  122  A    between atoms: _288  and  _290
REMARK  123  A    between atoms: _290  and  _291
REMARK  124  A    between atoms: _290  and  _293
REMARK  125  A    between atoms: _293  and  _294
REMARK  126  A    between atoms: _297  and  _298
REMARK  127  A    between atoms: _303  and  _305
REMARK  128  A    between atoms: _305  and  _306
REMARK  129  A    between atoms: _308  and  _310
REMARK  130  A    between atoms: _310  and  _311
REMARK  131  A    between atoms: _310  and  _313
REMARK  132  A    between atoms: _316  and  _318
REMARK  133  A    between atoms: _318  and  _319
REMARK  134  A    between atoms: _321  and  _323
REMARK  135  A    between atoms: _323  and  _324
REMARK  136  A    between atoms: _327  and  _329
REMARK  137  A    between atoms: _329  and  _330
REMARK  138  A    between atoms: _329  and  _332
REMARK  139  A    between atoms: _332  and  _333
REMARK  140  A    between atoms: _333  and  _334
REMARK  141  A    between atoms: _339  and  _341
REMARK  142  A    between atoms: _341  and  _342
REMARK  143  A    between atoms: _344  and  _346
REMARK  144  A    between atoms: _346  and  _347
REMARK  145  A    between atoms: _349  and  _351
REMARK  146  A    between atoms: _351  and  _352
REMARK  147  A    between atoms: _351  and  _354
REMARK  148  A    between atoms: _354  and  _355
REMARK  149  A    between atoms: _358  and  _360
REMARK  150  A    between atoms: _360  and  _361
REMARK  151  A    between atoms: _360  and  _363
REMARK  152  A    between atoms: _366  and  _368
REMARK  153  A    between atoms: _368  and  _369
REMARK  154  A    between atoms: _371  and  _373
REMARK  155  A    between atoms: _373  and  _374
REMARK  156  A    between atoms: _373  and  _376
REMARK  157  A    between atoms: _376  and  _377
REMARK  158  A    between atoms: _377  and  _378
REMARK  159  A    between atoms: _378  and  _379
REMARK  160  A    between atoms: _388  and  _390
REMARK  161  A    between atoms: _390  and  _391
REMARK  162  A    between atoms: _390  and  _393
REMARK  163  A    between atoms: _393  and  _394
REMARK  164  A    between atoms: _396  and  _398
REMARK  165  A    between atoms: _398  and  _399
REMARK  166  A    between atoms: _398  and  _401
REMARK  167  A    between atoms: _401  and  _402
REMARK  168  A    between atoms: _405  and  _407
REMARK  169  A    between atoms: _407  and  _408
REMARK  170  A    between atoms: _407  and  _410
REMARK  171  A    between atoms: _410  and  _411
REMARK  172  A    between atoms: _416  and  _417
REMARK  173  A    between atoms: _419  and  _421
REMARK  174  A    between atoms: _421  and  _422
REMARK  175  A    between atoms: _421  and  _424
REMARK  176  A    between atoms: _424  and  _425
REMARK  177  A    between atoms: _428  and  _430
REMARK  178  A    between atoms: _430  and  _431
REMARK  179  A    between atoms: _434  and  _436
REMARK  180  A    between atoms: _436  and  _437
REMARK  181  A    between atoms: _436  and  _439
REMARK  182  A    between atoms: _439  and  _440
REMARK  183  A    between atoms: _443  and  _445
REMARK  184  A    between atoms: _445  and  _446
REMARK  185  A    between atoms: _445  and  _448
REMARK  186  A    between atoms: _448  and  _449
REMARK  187  A    between atoms: _453  and  _454
REMARK  188  A    between atoms: _459  and  _461
REMARK  189  A    between atoms: _461  and  _462
REMARK  190  A    between atoms: _461  and  _464
REMARK  191  A    between atoms: _464  and  _465
REMARK  192  A    between atoms: _465  and  _466
REMARK  193  A    between atoms: _469  and  _471
REMARK  194  A    between atoms: _471  and  _472
REMARK  195  A    between atoms: _471  and  _474
REMARK  196  A    between atoms: _474  and  _475
REMARK  197  A    between atoms: _478  and  _480
REMARK  198  A    between atoms: _480  and  _481
REMARK  199  A    between atoms: _480  and  _483
REMARK  200  A    between atoms: _483  and  _484
REMARK  201  A    between atoms: _489  and  _491
REMARK  202  A    between atoms: _491  and  _492
REMARK  203  A    between atoms: _491  and  _494
REMARK  204  A    between atoms: _494  and  _495
REMARK  205  A    between atoms: _495  and  _496
REMARK  206  A    between atoms: _496  and  _497
REMARK  207  A    between atoms: _497  and  _498
REMARK  208  A    between atoms: _502  and  _504
REMARK  209  A    between atoms: _504  and  _505
REMARK  210  A    between atoms: _504  and  _507
REMARK  211  A    between atoms: _507  and  _508
REMARK                            x       y       z     vdW  Elec       q    Type
REMARK                         _______ _______ _______ _____ _____    ______ ____
ROOT
ATOM      1  CA  VAL A   5      28.831 -19.025   4.682  0.00  0.00    +0.149 C 
ENDROOT
BRANCH   1   3
ATOM      2  C   GLY A   4      29.853 -18.063   6.713  0.00  0.00    +0.243 C 
ATOM      3  N   VAL A   5      28.948 -18.856   6.138  0.00  0.00    -0.297 N 
ATOM      4  H   VAL A   5      28.292 -19.381   6.750  0.00  0.00    +0.150 HD
ATOM      5  O   GLY A   4      30.665 -17.374   6.114  0.00  0.00    -0.273 OA
BRANCH   2   6
ATOM      6  CA  GLY A   4      29.846 -17.997   8.216  0.00  0.00    +0.176 C 
BRANCH   6   9
ATOM      7  C   PRO A   3      29.597 -20.136   9.379  0.00  0.00    +0.241 C 
ATOM      8  O   PRO A   3      30.830 -20.305   9.487  0.00  0.00    -0.273 OA
ATOM      9  N   GLY A   4      29.031 -19.048   8.840  0.00  0.00    -0.295 N 
ATOM     10  H   GLY A   4      27.996 -18.946   8.864  0.00  0.00    +0.150 HD
BRANCH   7  16
ATOM     11  C   SER A   2      29.388 -23.452   9.465  0.00  0.00    +0.246 C 
ATOM     12  N   PRO A   3      29.279 -22.402  10.292  0.00  0.00    -0.272 N 
ATOM     13  CD  PRO A   3      29.739 -22.369  11.708  0.00  0.00    +0.094 C 
ATOM     14  CG  PRO A   3      29.186 -21.055  12.236  0.00  0.00    +0.024 C 
ATOM     15  CB  PRO A   3      28.086 -20.661  11.277  0.00  0.00    +0.031 C 
ATOM     16  CA  PRO A   3      28.622 -21.149   9.930  0.00  0.00    +0.152 C 
ATOM     17  O   SER A   2      28.866 -23.472   8.365  0.00  0.00    -0.273 OA
BRANCH  11  18
ATOM     18  CA  SER A   2      30.201 -24.646   9.938  0.00  0.00    +0.178 C 
BRANCH  18  21
ATOM     19  C   ILE A   1      29.722 -26.699  11.080  0.00  0.00    +0.238 C 
ATOM     20  O   ILE A   1      30.501 -26.378  11.997  0.00  0.00    -0.274 OA
ATOM     21  N   SER A   2      29.402 -25.856  10.084  0.00  0.00    -0.295 N 
ATOM     22  H   SER A   2      28.612 -26.060   9.440  0.00  0.00    +0.150 HD
BRANCH  19  23
ATOM     23  CA  ILE A   1      29.107 -28.079  11.024  0.00  0.00    +0.145 C 
BRANCH  23  24
ATOM     24  N   ILE A   1      29.940 -29.019  11.778  0.00  0.00    -0.238 NA
ATOM     25  H   ILE A   1      30.057 -28.896  12.804  0.00  0.00    +0.142 HD
ENDBRANCH  23  24
BRANCH  23  26
ATOM     26  CB  ILE A   1      27.622 -28.107  11.476  0.00  0.00    +0.025 C 
ATOM     27  CG2 ILE A   1      27.087 -29.551  11.472  0.00  0.00    +0.002 C 
BRANCH  26  28
ATOM     28  CG1 ILE A   1      27.502 -27.468  12.864  0.00  0.00    +0.002 C 
ATOM     29  CD1 ILE A   1      26.075 -27.477  13.465  0.00  0.00    +0.000 C 
ENDBRANCH  26  28
ENDBRANCH  23  26
ENDBRANCH  19  23
ENDBRANCH  18  21
BRANCH  18  30
ATOM     30  CB  SER A   2      31.374 -24.913   8.964  0.00  0.00    +0.166 C 
BRANCH  30  31
ATOM     31  OG  SER A   2      32.161 -23.737   8.821  0.00  0.00    -0.380 OA
ATOM     32  H   SER A   2      32.522 -23.474   9.704  0.00  0.00    +0.211 HD
ENDBRANCH  30  31
ENDBRANCH  18  30
ENDBRANCH  11  18
ENDBRANCH   7  16
ENDBRANCH   6   9
ENDBRANCH   2   6
ENDBRANCH   1   3
BRANCH   1  33
ATOM     33  C   VAL A   5      27.926 -17.936   4.160  0.00  0.00    +0.241 C 
ATOM     34  O   VAL A   5      26.810 -17.737   4.666  0.00  0.00    -0.273 OA
ATOM     35  N   GLY A   6      28.392 -17.246   3.128  0.00  0.00    -0.295 N 
ATOM     36  H   GLY A   6      29.363 -17.413   2.795  0.00  0.00    +0.150 HD
BRANCH  35  37
ATOM     37  CA  GLY A   6      27.563 -16.260   2.456  0.00  0.00    +0.176 C 
BRANCH  37  38
ATOM     38  C   GLY A   6      27.791 -14.897   3.044  0.00  0.00    +0.243 C 
ATOM     39  N   ALA A   7      26.864 -14.479   3.905  0.00  0.00    -0.297 N 
ATOM     40  H   ALA A   7      26.093 -15.113   4.196  0.00  0.00    +0.150 HD
ATOM     41  O   GLY A   6      28.814 -14.239   2.754  0.00  0.00    -0.273 OA
BRANCH  39  42
ATOM     42  CA  ALA A   7      26.942 -13.124   4.434  0.00  0.00    +0.149 C 
ATOM     43  CB  ALA A   7      25.827 -12.877   5.425  0.00  0.00    +0.031 C 
BRANCH  42  44
ATOM     44  C   ALA A   7      28.300 -12.780   5.044  0.00  0.00    +0.241 C 
ATOM     45  N   GLN A   8      28.890 -13.691   5.810  0.00  0.00    -0.297 N 
ATOM     46  H   GLN A   8      28.454 -14.629   5.922  0.00  0.00    +0.150 HD
ATOM     47  O   ALA A   7      28.793 -11.672   4.868  0.00  0.00    -0.273 OA
BRANCH  45  48
ATOM     48  CA  GLN A   8      30.148 -13.390   6.499  0.00  0.00    +0.149 C 
BRANCH  48  49
ATOM     49  C   GLN A   8      31.364 -13.637   5.620  0.00  0.00    +0.241 C 
ATOM     50  O   GLN A   8      32.477 -13.389   6.043  0.00  0.00    -0.273 OA
ATOM     51  N   GLY A   9      31.135 -14.156   4.416  0.00  0.00    -0.295 N 
ATOM     52  H   GLY A   9      30.176 -14.457   4.148  0.00  0.00    +0.150 HD
BRANCH  51  53
ATOM     53  CA  GLY A   9      32.245 -14.299   3.474  0.00  0.00    +0.176 C 
BRANCH  53  54
ATOM     54  C   GLY A   9      32.658 -15.726   3.141  0.00  0.00    +0.243 C 
ATOM     55  N   GLY A  10      32.203 -16.721   3.900  0.00  0.00    -0.296 N 
ATOM     56  H   GLY A  10      31.562 -16.517   4.693  0.00  0.00    +0.150 HD
ATOM     57  O   GLY A   9      33.402 -15.928   2.178  0.00  0.00    -0.273 OA
BRANCH  55  58
ATOM     58  CA  GLY A  10      32.600 -18.091   3.624  0.00  0.00    +0.163 C 
BRANCH  58  59
ATOM     59  C   GLY A  10      32.001 -18.678   2.361  0.00  0.00    +0.229 C 
ATOM     60  O   GLY A  10      30.931 -18.240   1.916  0.00  0.00    -0.286 OA
ENDBRANCH  58  59
ENDBRANCH  55  58
ENDBRANCH  53  54
ENDBRANCH  51  53
ENDBRANCH  48  49
BRANCH  48  61
ATOM     61  CB  GLN A   8      30.267 -14.230   7.776  0.00  0.00    +0.039 C 
BRANCH  61  62
ATOM     62  CG  GLN A   8      29.129 -13.973   8.772  0.00  0.00    +0.087 C 
BRANCH  62  63
ATOM     63  CD  GLN A   8      29.297 -14.856  10.028  0.00  0.00    +0.219 C 
ATOM     64  OE1 GLN A   8      30.356 -14.800  10.644  0.00  0.00    -0.275 OA
ATOM     65  NE2 GLN A   8      28.252 -15.674  10.411  0.00  0.00    -0.329 N 
ATOM     66 HE21 GLN A   8      28.345 -16.276  11.254  0.00  0.00    +0.145 HD
ATOM     67 HE22 GLN A   8      27.372 -15.688   9.857  0.00  0.00    +0.145 HD
ENDBRANCH  62  63
ENDBRANCH  61  62
ENDBRANCH  48  61
ENDBRANCH  45  48
ENDBRANCH  42  44
ENDBRANCH  39  42
ENDBRANCH  37  38
ENDBRANCH  35  37
ENDBRANCH   1  33
BRANCH   1  68
ATOM     68  CB  VAL A   5      28.236 -20.397   4.344  0.00  0.00    +0.027 C 
ATOM     69  CG2 VAL A   5      29.173 -21.523   4.902  0.00  0.00    +0.002 C 
ATOM     70  CG1 VAL A   5      27.992 -20.557   2.815  0.00  0.00    +0.002 C 
ENDBRANCH   1  68
TORSDOF 27
REMARK  Name = ../refined-set-2016/2zz1/2zz1_pocket.pdb
REMARK  211 active torsions:
REMARK  status: ('A' for Active; 'I' for Inactive)
REMARK    1  A    between atoms: _1  and  _3
REMARK    2  A    between atoms: _3  and  _4
REMARK    3  A    between atoms: _3  and  _6
REMARK    4  A    between atoms: _6  and  _7
REMARK    5  A    between atoms: _10  and  _12
REMARK    6  A    between atoms: _12  and  _13
REMARK    7  A    between atoms: _12  and  _15
REMARK    8  A    between atoms: _15  and  _16
REMARK    9  A    between atoms: _19  and  _21
REMARK   10  A    between atoms: _21  and  _22
REMARK   11  A    between atoms: _25  and  _27
REMARK   12  A    between atoms: _27  and  _28
REMARK   13  A    between atoms: _27  and  _30
REMARK   14  A    between atoms: _30  and  _31
REMARK   15  A    between atoms: _31  and  _32
REMARK   16  A    between atoms: _34  and  _36
REMARK   17  A    between atoms: _36  and  _37
REMARK   18  A    between atoms: _36  and  _39
REMARK   19  A    between atoms: _39  and  _40
REMARK   20  A    between atoms: _43  and  _45
REMARK   21  A    between atoms: _45  and  _46
REMARK   22  A    between atoms: _45  and  _48
REMARK   23  A    between atoms: _48  and  _49
REMARK   24  A    between atoms: _49  and  _50
REMARK   25  A    between atoms: _50  and  _51
REMARK   26  A    between atoms: _51  and  _52
REMARK   27  A    between atoms: _56  and  _58
REMARK   28  A    between atoms: _58  and  _59
REMARK   29  A    between atoms: _58  and  _61
REMARK   30  A    between atoms: _61  and  _62
REMARK   31  A    between atoms: _65  and  _67
REMARK   32  A    between atoms: _67  and  _68
REMARK   33  A    between atoms: _70  and  _72
REMARK   34  A    between atoms: _72  and  _73
REMARK   35  A    between atoms: _72  and  _75
REMARK   36  A    between atoms: _75  and  _76
REMARK   37  A    between atoms: _81  and  _82
REMARK   38  A    between atoms: _85  and  _86
REMARK   39  A    between atoms: _91  and  _93
REMARK   40  A    between atoms: _93  and  _94
REMARK   41  A    between atoms: _93  and  _96
REMARK   42  A    between atoms: _96  and  _97
REMARK   43  A    between atoms: _100  and  _102
REMARK   44  A    between atoms: _102  and  _103
REMARK   45  A    between atoms: _102  and  _105
REMARK   46  A    between atoms: _105  and  _106
REMARK   47  A    between atoms: _109  and  _111
REMARK   48  A    between atoms: _111  and  _112
REMARK   49  A    between atoms: _111  and  _114
REMARK   50  A    between atoms: _114  and  _115
REMARK   51  A    between atoms: _121  and  _123
REMARK   52  A    between atoms: _123  and  _124
REMARK   53  A    between atoms: _123  and  _126
REMARK   54  A    between atoms: _126  and  _127
REMARK   55  A    between atoms: _127  and  _128
REMARK   56  A    between atoms: _128  and  _129
REMARK   57  A    between atoms: _129  and  _130
REMARK   58  A    between atoms: _134  and  _136
REMARK   59  A    between atoms: _136  and  _137
REMARK   60  A    between atoms: _136  and  _139
REMARK   61  A    between atoms: _139  and  _140
REMARK   62  A    between atoms: _143  and  _145
REMARK   63  A    between atoms: _145  and  _146
REMARK   64  A    between atoms: _145  and  _148
REMARK   65  A    between atoms: _148  and  _149
REMARK   66  A    between atoms: _154  and  _156
REMARK   67  A    between atoms: _156  and  _157
REMARK   68  A    between atoms: _156  and  _159
REMARK   69  A    between atoms: _159  and  _160
REMARK   70  A    between atoms: _163  and  _165
REMARK   71  A    between atoms: _165  and  _166
REMARK   72  A    between atoms: _165  and  _168
REMARK   73  A    between atoms: _168  and  _169
REMARK   74  A    between atoms: _172  and  _174
REMARK   75  A    between atoms: _174  and  _175
REMARK   76  A    between atoms: _174  and  _177
REMARK   77  A    between atoms: _177  and  _178
REMARK   78  A    between atoms: _178  and  _179
REMARK   79  A    between atoms: _182  and  _184
REMARK   80  A    between atoms: _184  and  _185
REMARK   81  A    between atoms: _184  and  _187
REMARK   82  A    between atoms: _187  and  _188
REMARK   83  A    between atoms: _188  and  _189
REMARK   84  A    between atoms: _191  and  _193
REMARK   85  A    between atoms: _193  and  _194
REMARK   86  A    between atoms: _193  and  _196
REMARK   87  A    between atoms: _196  and  _197
REMARK   88  A    between atoms: _199  and  _201
REMARK   89  A    between atoms: _201  and  _202
REMARK   90  A    between atoms: _201  and  _204
REMARK   91  A    between atoms: _204  and  _205
REMARK   92  A    between atoms: _210  and  _212
REMARK   93  A    between atoms: _212  and  _213
REMARK   94  A    between atoms: _216  and  _218
REMARK   95  A    between atoms: _218  and  _219
REMARK   96  A    between atoms: _218  and  _221
REMARK   97  A    between atoms: _221  and  _222
REMARK   98  A    between atoms: _225  and  _227
REMARK   99  A    between atoms: _227  and  _228
REMARK  100  A    between atoms: _227  and  _230
REMARK  101  A    between atoms: _233  and  _235
REMARK  102  A    between atoms: _235  and  _236
REMARK  103  A    between atoms: _239  and  _240
REMARK  104  A    between atoms: _245  and  _247
REMARK  105  A    between atoms: _247  and  _248
REMARK  106  A    between atoms: _247  and  _250
REMARK  107  A    between atoms: _250  and  _251
REMARK  108  A    between atoms: _253  and  _255
REMARK  109  A    between atoms: _255  and  _256
REMARK  110  A    between atoms: _255  and  _258
REMARK  111  A    between atoms: _258  and  _259
REMARK  112  A    between atoms: _262  and  _264
REMARK  113  A    between atoms: _264  and  _265
REMARK  114  A    between atoms: _264  and  _267
REMARK  115  A    between atoms: _267  and  _268
REMARK  116  A    between atoms: _268  and  _269
REMARK  117  A    between atoms: _269  and  _270
REMARK  118  A    between atoms: _279  and  _281
REMARK  119  A    between atoms: _281  and  _282
REMARK  120  A    between atoms: _281  and  _284
REMARK  121  A    between atoms: _284  and  _285
REMARK  122  A    between atoms: _288  and  _290
REMARK  123  A    between atoms: _290  and  _291
REMARK  124  A    between atoms: _290  and  _293
REMARK  125  A    between atoms: _293  and  _294
REMARK  126  A    between atoms: _297  and  _298
REMARK  127  A    between atoms: _303  and  _305
REMARK  128  A    between atoms: _305  and  _306
REMARK  129  A    between atoms: _308  and  _310
REMARK  130  A    between atoms: _310  and  _311
REMARK  131  A    between atoms: _310  and  _313
REMARK  132  A    between atoms: _316  and  _318
REMARK  133  A    between atoms: _318  and  _319
REMARK  134  A    between atoms: _321  and  _323
REMARK  135  A    between atoms: _323  and  _324
REMARK  136  A    between atoms: _327  and  _329
REMARK  137  A    between atoms: _329  and  _330
REMARK  138  A    between atoms: _329  and  _332
REMARK  139  A    between atoms: _332  and  _333
REMARK  140  A    between atoms: _333  and  _334
REMARK  141  A    between atoms: _339  and  _341
REMARK  142  A    between atoms: _341  and  _342
REMARK  143  A    between atoms: _344  and  _346
REMARK  144  A    between atoms: _346  and  _347
REMARK  145  A    between atoms: _349  and  _351
REMARK  146  A    between atoms: _351  and  _352
REMARK  147  A    between atoms: _351  and  _354
REMARK  148  A    between atoms: _354  and  _355
REMARK  149  A    between atoms: _358  and  _360
REMARK  150  A    between atoms: _360  and  _361
REMARK  151  A    between atoms: _360  and  _363
REMARK  152  A    between atoms: _366  and  _368
REMARK  153  A    between atoms: _368  and  _369
REMARK  154  A    between atoms: _371  and  _373
REMARK  155  A    between atoms: _373  and  _374
REMARK  156  A    between atoms: _373  and  _376
REMARK  157  A    between atoms: _376  and  _377
REMARK  158  A    between atoms: _377  and  _378
REMARK  159  A    between atoms: _378  and  _379
REMARK  160  A    between atoms: _388  and  _390
REMARK  161  A    between atoms: _390  and  _391
REMARK  162  A    between atoms: _390  and  _393
REMARK  163  A    between atoms: _393  and  _394
REMARK  164  A    between atoms: _396  and  _398
REMARK  165  A    between atoms: _398  and  _399
REMARK  166  A    between atoms: _398  and  _401
REMARK  167  A    between atoms: _401  and  _402
REMARK  168  A    between atoms: _405  and  _407
REMARK  169  A    between atoms: _407  and  _408
REMARK  170  A    between atoms: _407  and  _410
REMARK  171  A    between atoms: _410  and  _411
REMARK  172  A    between atoms: _416  and  _417
REMARK  173  A    between atoms: _419  and  _421
REMARK  174  A    between atoms: _421  and  _422
REMARK  175  A    between atoms: _421  and  _424
REMARK  176  A    between atoms: _424  and  _425
REMARK  177  A    between atoms: _428  and  _430
REMARK  178  A    between atoms: _430  and  _431
REMARK  179  A    between atoms: _434  and  _436
REMARK  180  A    between atoms: _436  and  _437
REMARK  181  A    between atoms: _436  and  _439
REMARK  182  A    between atoms: _439  and  _440
REMARK  183  A    between atoms: _443  and  _445
REMARK  184  A    between atoms: _445  and  _446
REMARK  185  A    between atoms: _445  and  _448
REMARK  186  A    between atoms: _448  and  _449
REMARK  187  A    between atoms: _453  and  _454
REMARK  188  A    between atoms: _459  and  _461
REMARK  189  A    between atoms: _461  and  _462
REMARK  190  A    between atoms: _461  and  _464
REMARK  191  A    between atoms: _464  and  _465
REMARK  192  A    between atoms: _465  and  _466
REMARK  193  A    between atoms: _469  and  _471
REMARK  194  A    between atoms: _471  and  _472
REMARK  195  A    between atoms: _471  and  _474
REMARK  196  A    between atoms: _474  and  _475
REMARK  197  A    between atoms: _478  and  _480
REMARK  198  A    between atoms: _480  and  _481
REMARK  199  A    between atoms: _480  and  _483
REMARK  200  A    between atoms: _483  and  _484
REMARK  201  A    between atoms: _489  and  _491
REMARK  202  A    between atoms: _491  and  _492
REMARK  203  A    between atoms: _491  and  _494
REMARK  204  A    between atoms: _494  and  _495
REMARK  205  A    between atoms: _495  and  _496
REMARK  206  A    between atoms: _496  and  _497
REMARK  207  A    between atoms: _497  and  _498
REMARK  208  A    between atoms: _502  and  _504
REMARK  209  A    between atoms: _504  and  _505
REMARK  210  A    between atoms: _504  and  _507
REMARK  211  A    between atoms: _507  and  _508
REMARK                            x       y       z     vdW  Elec       q    Type
REMARK                         _______ _______ _______ _____ _____    ______ ____
ROOT
ATOM      1  C   ARG A   4      20.967 -14.601   4.381  0.00  0.00    +0.241 C 
ATOM      2  N   SER A   5      21.961 -15.313   3.843  0.00  0.00    -0.295 N 
ATOM      3  H   SER A   5      22.696 -15.712   4.461  0.00  0.00    +0.150 HD
ATOM      4  O   ARG A   4      20.083 -14.056   3.698  0.00  0.00    -0.273 OA
ENDROOT
BRANCH   2   5
ATOM      5  CA  SER A   5      22.036 -15.546   2.373  0.00  0.00    +0.178 C 
BRANCH   5   6
ATOM      6  C   SER A   5      20.757 -16.206   1.875  0.00  0.00    +0.243 C 
ATOM      7  N   ILE A   6      20.089 -16.965   2.757  0.00  0.00    -0.297 N 
ATOM      8  H   ILE A   6      20.492 -17.143   3.699  0.00  0.00    +0.150 HD
ATOM      9  O   SER A   5      20.378 -16.021   0.682  0.00  0.00    -0.273 OA
BRANCH   7  10
ATOM     10  CA  ILE A   6      18.793 -17.544   2.395  0.00  0.00    +0.149 C 
BRANCH  10  11
ATOM     11  C   ILE A   6      17.641 -16.685   2.932  0.00  0.00    +0.241 C 
ATOM     12  N   TYR A   7      17.635 -16.366   4.243  0.00  0.00    -0.297 N 
ATOM     13  H   TYR A   7      18.475 -16.515   4.837  0.00  0.00    +0.150 HD
ATOM     14  O   ILE A   6      16.731 -16.302   2.148  0.00  0.00    -0.273 OA
BRANCH  12  15
ATOM     15  CA  TYR A   7      16.394 -15.799   4.803  0.00  0.00    +0.153 C 
BRANCH  15  16
ATOM     16  C   TYR A   7      16.123 -14.337   4.464  0.00  0.00    +0.241 C 
ATOM     17  O   TYR A   7      15.007 -13.878   4.671  0.00  0.00    -0.273 OA
ATOM     18  N   LEU A   8      17.158 -13.637   4.003  0.00  0.00    -0.298 N 
ATOM     19  H   LEU A   8      18.091 -14.093   3.947  0.00  0.00    +0.150 HD
BRANCH  18  20
ATOM     20  CA  LEU A   8      17.018 -12.218   3.564  0.00  0.00    +0.137 C 
BRANCH  20  21
ATOM     21  C   LEU A   8      16.894 -12.123   2.045  0.00  0.00    +0.227 C 
ATOM     22  O   LEU A   8      16.699 -11.020   1.500  0.00  0.00    -0.286 OA
ENDBRANCH  20  21
BRANCH  20  23
ATOM     23  CB  LEU A   8      18.156 -11.320   4.076  0.00  0.00    +0.028 C 
BRANCH  23  24
ATOM     24  CG  LEU A   8      18.125 -11.172   5.602  0.00  0.00    +0.002 C 
ATOM     25  CD2 LEU A   8      16.732 -10.720   6.142  0.00  0.00    +0.000 C 
ATOM     26  CD1 LEU A   8      19.197 -10.205   5.971  0.00  0.00    +0.000 C 
ENDBRANCH  23  24
ENDBRANCH  20  23
ENDBRANCH  18  20
ENDBRANCH  15  16
BRANCH  15  27
ATOM     27  CB  TYR A   7      16.178 -16.132   6.302  0.00  0.00    +0.055 C 
BRANCH  27  28
ATOM     28  CG  TYR A   7      17.083 -15.419   7.315  0.00  0.00    -0.020 A 
ATOM     29  CD2 TYR A   7      17.998 -16.167   8.078  0.00  0.00    -0.001 A 
ATOM     30  CE2 TYR A   7      18.800 -15.533   9.010  0.00  0.00    +0.036 A 
ATOM     31  CZ  TYR A   7      18.734 -14.150   9.184  0.00  0.00    +0.134 A 
ATOM     32  CE1 TYR A   7      17.840 -13.384   8.469  0.00  0.00    +0.036 A 
ATOM     33  CD1 TYR A   7      17.001 -14.036   7.539  0.00  0.00    -0.001 A 
BRANCH  31  34
ATOM     34  OH  TYR A   7      19.548 -13.528  10.112  0.00  0.00    -0.506 OA
ATOM     35  HH  TYR A   7      20.496 -13.695   9.882  0.00  0.00    +0.292 HD
ENDBRANCH  31  34
ENDBRANCH  27  28
ENDBRANCH  15  27
ENDBRANCH  12  15
ENDBRANCH  10  11
BRANCH  10  36
ATOM     36  CB  ILE A   6      18.714 -18.969   2.963  0.00  0.00    +0.027 C 
ATOM     37  CG2 ILE A   6      17.276 -19.527   2.898  0.00  0.00    +0.002 C 
BRANCH  36  38
ATOM     38  CG1 ILE A   6      19.697 -19.879   2.203  0.00  0.00    +0.002 C 
ATOM     39  CD1 ILE A   6      19.895 -21.259   2.824  0.00  0.00    +0.000 C 
ENDBRANCH  36  38
ENDBRANCH  10  36
ENDBRANCH   7  10
ENDBRANCH   5   6
BRANCH   5  40
ATOM     40  CB  SER A   5      23.245 -16.422   2.010  0.00  0.00    +0.166 C 
BRANCH  40  41
ATOM     41  OG  SER A   5      24.387 -15.618   2.113  0.00  0.00    -0.380 OA
ATOM     42  H   SER A   5      24.468 -15.279   3.040  0.00  0.00    +0.211 HD
ENDBRANCH  40  41
ENDBRANCH   5  40
ENDBRANCH   2   5
BRANCH   1  43
ATOM     43  CA  ARG A   4      20.969 -14.377   5.898  0.00  0.00    +0.149 C 
BRANCH  43  45
ATOM     44  C   GLY A   3      20.839 -16.729   6.564  0.00  0.00    +0.243 C 
ATOM     45  N   ARG A   4      21.423 -15.544   6.674  0.00  0.00    -0.297 N 
ATOM     46  H   ARG A   4      22.225 -15.435   7.327  0.00  0.00    +0.150 HD
ATOM     47  O   GLY A   3      20.075 -17.015   5.641  0.00  0.00    -0.273 OA
BRANCH  44  48
ATOM     48  CA  GLY A   3      21.248 -17.782   7.589  0.00  0.00    +0.176 C 
BRANCH  48  50
ATOM     49  C   VAL A   2      22.199 -19.879   6.705  0.00  0.00    +0.241 C 
ATOM     50  N   GLY A   3      22.348 -18.599   7.063  0.00  0.00    -0.295 N 
ATOM     51  H   GLY A   3      23.287 -18.162   6.964  0.00  0.00    +0.150 HD
ATOM     52  O   VAL A   2      21.168 -20.536   6.813  0.00  0.00    -0.273 OA
BRANCH  49  53
ATOM     53  CA  VAL A   2      23.442 -20.554   6.192  0.00  0.00    +0.148 C 
BRANCH  53  56
ATOM     54  C   ILE A   1      24.873 -22.128   7.396  0.00  0.00    +0.238 C 
ATOM     55  O   ILE A   1      25.885 -21.427   7.202  0.00  0.00    -0.274 OA
ATOM     56  N   VAL A   2      23.656 -21.799   6.962  0.00  0.00    -0.297 N 
ATOM     57  H   VAL A   2      22.850 -22.423   7.167  0.00  0.00    +0.150 HD
BRANCH  54  58
ATOM     58  CA  ILE A   1      25.002 -23.408   8.224  0.00  0.00    +0.145 C 
BRANCH  58  59
ATOM     59  N   ILE A   1      26.124 -24.176   7.710  0.00  0.00    -0.238 NA
ATOM     60  H   ILE A   1      27.085 -23.903   7.998  0.00  0.00    +0.142 HD
ENDBRANCH  58  59
BRANCH  58  61
ATOM     61  CB  ILE A   1      25.310 -23.019   9.674  0.00  0.00    +0.025 C 
ATOM     62  CG2 ILE A   1      24.244 -21.970  10.215  0.00  0.00    +0.002 C 
BRANCH  61  63
ATOM     63  CG1 ILE A   1      25.332 -24.288  10.530  0.00  0.00    +0.002 C 
ATOM     64  CD1 ILE A   1      26.047 -24.061  11.865  0.00  0.00    +0.000 C 
ENDBRANCH  61  63
ENDBRANCH  58  61
ENDBRANCH  54  58
ENDBRANCH  53  56
BRANCH  53  65
ATOM     65  CB  VAL A   2      23.241 -20.843   4.681  0.00  0.00    +0.027 C 
ATOM     66  CG2 VAL A   2      24.488 -21.534   4.135  0.00  0.00    +0.002 C 
ATOM     67  CG1 VAL A   2      23.046 -19.566   3.893  0.00  0.00    +0.002 C 
ENDBRANCH  53  65
ENDBRANCH  49  53
ENDBRANCH  48  50
ENDBRANCH  44  48
ENDBRANCH  43  45
BRANCH  43  68
ATOM     68  CB  ARG A   4      21.849 -13.175   6.255  0.00  0.00    +0.033 C 
BRANCH  68  69
ATOM     69  CG  ARG A   4      21.482 -12.564   7.597  0.00  0.00    +0.045 C 
BRANCH  69  70
ATOM     70  CD  ARG A   4      22.595 -11.604   8.024  0.00  0.00    +0.174 C 
BRANCH  70  71
ATOM     71  NE  ARG A   4      23.789 -12.334   8.453  0.00  0.00    -0.265 N 
ATOM     72  CZ  ARG A   4      24.964 -11.780   8.761  0.00  0.00    +0.342 C 
ATOM     73  NH2 ARG A   4      25.974 -12.533   9.158  0.00  0.00    -0.292 N 
ATOM     74 HH21 ARG A   4      26.887 -12.095   9.396  0.00  0.00    +0.255 HD
ATOM     75 HH22 ARG A   4      25.857 -13.564   9.232  0.00  0.00    +0.255 HD
ATOM     76  NH1 ARG A   4      25.146 -10.463   8.632  0.00  0.00    -0.292 N 
ATOM     77 HH11 ARG A   4      26.064 -10.039   8.874  0.00  0.00    +0.255 HD
ATOM     78 HH12 ARG A   4      24.369  -9.862   8.290  0.00  0.00    +0.255 HD
ATOM     79  HE  ARG A   4      23.716 -13.369   8.524  0.00  0.00    +0.259 HD
ENDBRANCH  70  71
ENDBRANCH  69  70
ENDBRANCH  68  69
ENDBRANCH  43  68
ENDBRANCH   1  43
TORSDOF 32
REMARK  Name = ../refined-set-2016/2zz1/2zz1_pocket.pdb
REMARK  211 active torsions:
REMARK  status: ('A' for Active; 'I' for Inactive)
REMARK    1  A    between atoms: _1  and  _3
REMARK    2  A    between atoms: _3  and  _4
REMARK    3  A    between atoms: _3  and  _6
REMARK    4  A    between atoms: _6  and  _7
REMARK    5  A    between atoms: _10  and  _12
REMARK    6  A    between atoms: _12  and  _13
REMARK    7  A    between atoms: _12  and  _15
REMARK    8  A    between atoms: _15  and  _16
REMARK    9  A    between atoms: _19  and  _21
REMARK   10  A    between atoms: _21  and  _22
REMARK   11  A    between atoms: _25  and  _27
REMARK   12  A    between atoms: _27  and  _28
REMARK   13  A    between atoms: _27  and  _30
REMARK   14  A    between atoms: _30  and  _31
REMARK   15  A    between atoms: _31  and  _32
REMARK   16  A    between atoms: _34  and  _36
REMARK   17  A    between atoms: _36  and  _37
REMARK   18  A    between atoms: _36  and  _39
REMARK   19  A    between atoms: _39  and  _40
REMARK   20  A    between atoms: _43  and  _45
REMARK   21  A    between atoms: _45  and  _46
REMARK   22  A    between atoms: _45  and  _48
REMARK   23  A    between atoms: _48  and  _49
REMARK   24  A    between atoms: _49  and  _50
REMARK   25  A    between atoms: _50  and  _51
REMARK   26  A    between atoms: _51  and  _52
REMARK   27  A    between atoms: _56  and  _58
REMARK   28  A    between atoms: _58  and  _59
REMARK   29  A    between atoms: _58  and  _61
REMARK   30  A    between atoms: _61  and  _62
REMARK   31  A    between atoms: _65  and  _67
REMARK   32  A    between atoms: _67  and  _68
REMARK   33  A    between atoms: _70  and  _72
REMARK   34  A    between atoms: _72  and  _73
REMARK   35  A    between atoms: _72  and  _75
REMARK   36  A    between atoms: _75  and  _76
REMARK   37  A    between atoms: _81  and  _82
REMARK   38  A    between atoms: _85  and  _86
REMARK   39  A    between atoms: _91  and  _93
REMARK   40  A    between atoms: _93  and  _94
REMARK   41  A    between atoms: _93  and  _96
REMARK   42  A    between atoms: _96  and  _97
REMARK   43  A    between atoms: _100  and  _102
REMARK   44  A    between atoms: _102  and  _103
REMARK   45  A    between atoms: _102  and  _105
REMARK   46  A    between atoms: _105  and  _106
REMARK   47  A    between atoms: _109  and  _111
REMARK   48  A    between atoms: _111  and  _112
REMARK   49  A    between atoms: _111  and  _114
REMARK   50  A    between atoms: _114  and  _115
REMARK   51  A    between atoms: _121  and  _123
REMARK   52  A    between atoms: _123  and  _124
REMARK   53  A    between atoms: _123  and  _126
REMARK   54  A    between atoms: _126  and  _127
REMARK   55  A    between atoms: _127  and  _128
REMARK   56  A    between atoms: _128  and  _129
REMARK   57  A    between atoms: _129  and  _130
REMARK   58  A    between atoms: _134  and  _136
REMARK   59  A    between atoms: _136  and  _137
REMARK   60  A    between atoms: _136  and  _139
REMARK   61  A    between atoms: _139  and  _140
REMARK   62  A    between atoms: _143  and  _145
REMARK   63  A    between atoms: _145  and  _146
REMARK   64  A    between atoms: _145  and  _148
REMARK   65  A    between atoms: _148  and  _149
REMARK   66  A    between atoms: _154  and  _156
REMARK   67  A    between atoms: _156  and  _157
REMARK   68  A    between atoms: _156  and  _159
REMARK   69  A    between atoms: _159  and  _160
REMARK   70  A    between atoms: _163  and  _165
REMARK   71  A    between atoms: _165  and  _166
REMARK   72  A    between atoms: _165  and  _168
REMARK   73  A    between atoms: _168  and  _169
REMARK   74  A    between atoms: _172  and  _174
REMARK   75  A    between atoms: _174  and  _175
REMARK   76  A    between atoms: _174  and  _177
REMARK   77  A    between atoms: _177  and  _178
REMARK   78  A    between atoms: _178  and  _179
REMARK   79  A    between atoms: _182  and  _184
REMARK   80  A    between atoms: _184  and  _185
REMARK   81  A    between atoms: _184  and  _187
REMARK   82  A    between atoms: _187  and  _188
REMARK   83  A    between atoms: _188  and  _189
REMARK   84  A    between atoms: _191  and  _193
REMARK   85  A    between atoms: _193  and  _194
REMARK   86  A    between atoms: _193  and  _196
REMARK   87  A    between atoms: _196  and  _197
REMARK   88  A    between atoms: _199  and  _201
REMARK   89  A    between atoms: _201  and  _202
REMARK   90  A    between atoms: _201  and  _204
REMARK   91  A    between atoms: _204  and  _205
REMARK   92  A    between atoms: _210  and  _212
REMARK   93  A    between atoms: _212  and  _213
REMARK   94  A    between atoms: _216  and  _218
REMARK   95  A    between atoms: _218  and  _219
REMARK   96  A    between atoms: _218  and  _221
REMARK   97  A    between atoms: _221  and  _222
REMARK   98  A    between atoms: _225  and  _227
REMARK   99  A    between atoms: _227  and  _228
REMARK  100  A    between atoms: _227  and  _230
REMARK  101  A    between atoms: _233  and  _235
REMARK  102  A    between atoms: _235  and  _236
REMARK  103  A    between atoms: _239  and  _240
REMARK  104  A    between atoms: _245  and  _247
REMARK  105  A    between atoms: _247  and  _248
REMARK  106  A    between atoms: _247  and  _250
REMARK  107  A    between atoms: _250  and  _251
REMARK  108  A    between atoms: _253  and  _255
REMARK  109  A    between atoms: _255  and  _256
REMARK  110  A    between atoms: _255  and  _258
REMARK  111  A    between atoms: _258  and  _259
REMARK  112  A    between atoms: _262  and  _264
REMARK  113  A    between atoms: _264  and  _265
REMARK  114  A    between atoms: _264  and  _267
REMARK  115  A    between atoms: _267  and  _268
REMARK  116  A    between atoms: _268  and  _269
REMARK  117  A    between atoms: _269  and  _270
REMARK  118  A    between atoms: _279  and  _281
REMARK  119  A    between atoms: _281  and  _282
REMARK  120  A    between atoms: _281  and  _284
REMARK  121  A    between atoms: _284  and  _285
REMARK  122  A    between atoms: _288  and  _290
REMARK  123  A    between atoms: _290  and  _291
REMARK  124  A    between atoms: _290  and  _293
REMARK  125  A    between atoms: _293  and  _294
REMARK  126  A    between atoms: _297  and  _298
REMARK  127  A    between atoms: _303  and  _305
REMARK  128  A    between atoms: _305  and  _306
REMARK  129  A    between atoms: _308  and  _310
REMARK  130  A    between atoms: _310  and  _311
REMARK  131  A    between atoms: _310  and  _313
REMARK  132  A    between atoms: _316  and  _318
REMARK  133  A    between atoms: _318  and  _319
REMARK  134  A    between atoms: _321  and  _323
REMARK  135  A    between atoms: _323  and  _324
REMARK  136  A    between atoms: _327  and  _329
REMARK  137  A    between atoms: _329  and  _330
REMARK  138  A    between atoms: _329  and  _332
REMARK  139  A    between atoms: _332  and  _333
REMARK  140  A    between atoms: _333  and  _334
REMARK  141  A    between atoms: _339  and  _341
REMARK  142  A    between atoms: _341  and  _342
REMARK  143  A    between atoms: _344  and  _346
REMARK  144  A    between atoms: _346  and  _347
REMARK  145  A    between atoms: _349  and  _351
REMARK  146  A    between atoms: _351  and  _352
REMARK  147  A    between atoms: _351  and  _354
REMARK  148  A    between atoms: _354  and  _355
REMARK  149  A    between atoms: _358  and  _360
REMARK  150  A    between atoms: _360  and  _361
REMARK  151  A    between atoms: _360  and  _363
REMARK  152  A    between atoms: _366  and  _368
REMARK  153  A    between atoms: _368  and  _369
REMARK  154  A    between atoms: _371  and  _373
REMARK  155  A    between atoms: _373  and  _374
REMARK  156  A    between atoms: _373  and  _376
REMARK  157  A    between atoms: _376  and  _377
REMARK  158  A    between atoms: _377  and  _378
REMARK  159  A    between atoms: _378  and  _379
REMARK  160  A    between atoms: _388  and  _390
REMARK  161  A    between atoms: _390  and  _391
REMARK  162  A    between atoms: _390  and  _393
REMARK  163  A    between atoms: _393  and  _394
REMARK  164  A    between atoms: _396  and  _398
REMARK  165  A    between atoms: _398  and  _399
REMARK  166  A    between atoms: _398  and  _401
REMARK  167  A    between atoms: _401  and  _402
REMARK  168  A    between atoms: _405  and  _407
REMARK  169  A    between atoms: _407  and  _408
REMARK  170  A    between atoms: _407  and  _410
REMARK  171  A    between atoms: _410  and  _411
REMARK  172  A    between atoms: _416  and  _417
REMARK  173  A    between atoms: _419  and  _421
REMARK  174  A    between atoms: _421  and  _422
REMARK  175  A    between atoms: _421  and  _424
REMARK  176  A    between atoms: _424  and  _425
REMARK  177  A    between atoms: _428  and  _430
REMARK  178  A    between atoms: _430  and  _431
REMARK  179  A    between atoms: _434  and  _436
REMARK  180  A    between atoms: _436  and  _437
REMARK  181  A    between atoms: _436  and  _439
REMARK  182  A    between atoms: _439  and  _440
REMARK  183  A    between atoms: _443  and  _445
REMARK  184  A    between atoms: _445  and  _446
REMARK  185  A    between atoms: _445  and  _448
REMARK  186  A    between atoms: _448  and  _449
REMARK  187  A    between atoms: _453  and  _454
REMARK  188  A    between atoms: _459  and  _461
REMARK  189  A    between atoms: _461  and  _462
REMARK  190  A    between atoms: _461  and  _464
REMARK  191  A    between atoms: _464  and  _465
REMARK  192  A    between atoms: _465  and  _466
REMARK  193  A    between atoms: _469  and  _471
REMARK  194  A    between atoms: _471  and  _472
REMARK  195  A    between atoms: _471  and  _474
REMARK  196  A    between atoms: _474  and  _475
REMARK  197  A    between atoms: _478  and  _480
REMARK  198  A    between atoms: _480  and  _481
REMARK  199  A    between atoms: _480  and  _483
REMARK  200  A    between atoms: _483  and  _484
REMARK  201  A    between atoms: _489  and  _491
REMARK  202  A    between atoms: _491  and  _492
REMARK  203  A    between atoms: _491  and  _494
REMARK  204  A    between atoms: _494  and  _495
REMARK  205  A    between atoms: _495  and  _496
REMARK  206  A    between atoms: _496  and  _497
REMARK  207  A    between atoms: _497  and  _498
REMARK  208  A    between atoms: _502  and  _504
REMARK  209  A    between atoms: _504  and  _505
REMARK  210  A    between atoms: _504  and  _507
REMARK  211  A    between atoms: _507  and  _508
REMARK                            x       y       z     vdW  Elec       q    Type
REMARK                         _______ _______ _______ _____ _____    ______ ____
ROOT
ATOM      1  C   PRO A   4      26.446  -9.072  15.960  0.00  0.00    +0.241 C 
ATOM      2  O   PRO A   4      25.609  -8.564  16.721  0.00  0.00    -0.273 OA
ATOM      3  N   GLU A   5      26.121  -9.587  14.758  0.00  0.00    -0.297 N 
ATOM      4  H   GLU A   5      26.841 -10.093  14.204  0.00  0.00    +0.150 HD
ENDROOT
BRANCH   1   8
ATOM      5  C   ILE A   3      27.942 -11.549  16.696  0.00  0.00    +0.244 C 
ATOM      6  O   ILE A   3      26.838 -11.478  17.257  0.00  0.00    -0.273 OA
ATOM      7  N   PRO A   4      28.553 -10.464  16.211  0.00  0.00    -0.272 N 
ATOM      8  CA  PRO A   4      27.926  -9.163  16.423  0.00  0.00    +0.152 C 
ATOM      9  CB  PRO A   4      28.849  -8.176  15.619  0.00  0.00    +0.031 C 
ATOM     10  CG  PRO A   4      30.219  -8.867  15.721  0.00  0.00    +0.024 C 
ATOM     11  CD  PRO A   4      29.896 -10.356  15.598  0.00  0.00    +0.094 C 
BRANCH   5  12
ATOM     12  CA  ILE A   3      28.656 -12.899  16.539  0.00  0.00    +0.149 C 
BRANCH  12  15
ATOM     13  C   ASP A   2      28.270 -13.735  18.805  0.00  0.00    +0.241 C 
ATOM     14  O   ASP A   2      29.018 -12.885  19.319  0.00  0.00    -0.273 OA
ATOM     15  N   ILE A   3      28.066 -13.841  17.493  0.00  0.00    -0.297 N 
ATOM     16  H   ILE A   3      27.471 -14.615  17.136  0.00  0.00    +0.150 HD
BRANCH  13  17
ATOM     17  CA  ASP A   2      27.492 -14.739  19.671  0.00  0.00    +0.160 C 
BRANCH  17  20
ATOM     18  C   ALA A   1      28.216 -15.269  21.924  0.00  0.00    +0.238 C 
ATOM     19  O   ALA A   1      28.725 -16.332  21.545  0.00  0.00    -0.274 OA
ATOM     20  N   ASP A   2      27.662 -14.390  21.088  0.00  0.00    -0.297 N 
ATOM     21  H   ASP A   2      27.352 -13.461  21.438  0.00  0.00    +0.150 HD
BRANCH  18  22
ATOM     22  CA  ALA A   1      28.271 -14.824  23.386  0.00  0.00    +0.145 C 
ATOM     23  CB  ALA A   1      28.681 -15.972  24.302  0.00  0.00    +0.028 C 
BRANCH  22  24
ATOM     24  N   ALA A   1      26.990 -14.295  23.817  0.00  0.00    -0.238 NA
ATOM     25  H   ALA A   1      26.111 -14.627  23.371  0.00  0.00    +0.142 HD
ENDBRANCH  22  24
ENDBRANCH  18  22
ENDBRANCH  17  20
BRANCH  17  26
ATOM     26  CB  ASP A   2      25.988 -14.763  19.311  0.00  0.00    +0.143 C 
BRANCH  26  27
ATOM     27  CG  ASP A   2      25.648 -15.826  18.297  0.00  0.00    +0.367 C 
ATOM     28  OD2 ASP A   2      24.735 -16.664  18.621  0.00  0.00    -0.246 OA
ATOM     29  OD1 ASP A   2      26.261 -15.911  17.211  0.00  0.00    -0.246 OA
ENDBRANCH  26  27
ENDBRANCH  17  26
ENDBRANCH  13  17
ENDBRANCH  12  15
BRANCH  12  30
ATOM     30  CB  ILE A   3      28.546 -13.439  15.084  0.00  0.00    +0.027 C 
ATOM     31  CG2 ILE A   3      29.231 -14.810  14.958  0.00  0.00    +0.002 C 
BRANCH  30  32
ATOM     32  CG1 ILE A   3      27.098 -13.427  14.598  0.00  0.00    +0.002 C 
ATOM     33  CD1 ILE A   3      26.951 -13.742  13.041  0.00  0.00    +0.000 C 
ENDBRANCH  30  32
ENDBRANCH  12  30
ENDBRANCH   5  12
ENDBRANCH   1   8
BRANCH   3  34
ATOM     34  CA  GLU A   5      24.762  -9.441  14.222  0.00  0.00    +0.149 C 
BRANCH  34  35
ATOM     35  C   GLU A   5      23.722 -10.144  15.105  0.00  0.00    +0.241 C 
ATOM     36  N   THR A   6      24.081 -11.313  15.665  0.00  0.00    -0.295 N 
ATOM     37  H   THR A   6      25.041 -11.684  15.513  0.00  0.00    +0.150 HD
ATOM     38  O   GLU A   5      22.634  -9.622  15.335  0.00  0.00    -0.273 OA
BRANCH  36  39
ATOM     39  CA  THR A   6      23.134 -12.066  16.485  0.00  0.00    +0.176 C 
BRANCH  39  40
ATOM     40  C   THR A   6      23.075 -11.401  17.855  0.00  0.00    +0.243 C 
ATOM     41  O   THR A   6      21.976 -11.332  18.480  0.00  0.00    -0.273 OA
ATOM     42  N   ASN A   7      24.237 -10.945  18.355  0.00  0.00    -0.298 N 
ATOM     43  H   ASN A   7      25.127 -11.084  17.835  0.00  0.00    +0.150 HD
BRANCH  42  44
ATOM     44  CA  ASN A   7      24.228 -10.248  19.646  0.00  0.00    +0.146 C 
BRANCH  44  45
ATOM     45  C   ASN A   7      23.275  -9.068  19.583  0.00  0.00    +0.227 C 
ATOM     46  O   ASN A   7      22.543  -8.821  20.542  0.00  0.00    -0.286 OA
ENDBRANCH  44  45
BRANCH  44  47
ATOM     47  CB  ASN A   7      25.620  -9.736  20.009  0.00  0.00    +0.112 C 
BRANCH  47  48
ATOM     48  CG  ASN A   7      26.497 -10.833  20.602  0.00  0.00    +0.222 C 
ATOM     49  ND2 ASN A   7      27.640 -10.421  21.134  0.00  0.00    -0.329 N 
ATOM     50 HD21 ASN A   7      28.283 -11.106  21.581  0.00  0.00    +0.145 HD
ATOM     51 HD22 ASN A   7      27.894  -9.413  21.105  0.00  0.00    +0.145 HD
ATOM     52  OD1 ASN A   7      26.140 -12.013  20.605  0.00  0.00    -0.275 OA
ENDBRANCH  47  48
ENDBRANCH  44  47
ENDBRANCH  42  44
ENDBRANCH  39  40
BRANCH  39  53
ATOM     53  CB  THR A   6      23.597 -13.507  16.586  0.00  0.00    +0.137 C 
ATOM     54  CG2 THR A   6      22.677 -14.296  17.498  0.00  0.00    +0.034 C 
BRANCH  53  55
ATOM     55  OG1 THR A   6      23.507 -14.065  15.273  0.00  0.00    -0.382 OA
ATOM     56  HG1 THR A   6      23.802 -15.010  15.296  0.00  0.00    +0.210 HD
ENDBRANCH  53  55
ENDBRANCH  39  53
ENDBRANCH  36  39
ENDBRANCH  34  35
BRANCH  34  57
ATOM     57  CB  GLU A   5      24.727  -9.984  12.798  0.00  0.00    +0.041 C 
BRANCH  57  58
ATOM     58  CG  GLU A   5      25.471  -9.096  11.837  0.00  0.00    +0.116 C 
BRANCH  58  59
ATOM     59  CD  GLU A   5      27.005  -9.297  11.762  0.00  0.00    +0.365 C 
ATOM     60  OE2 GLU A   5      27.671 -10.072  12.511  0.00  0.00    -0.246 OA
ATOM     61  OE1 GLU A   5      27.563  -8.618  10.868  0.00  0.00    -0.246 OA
ENDBRANCH  58  59
ENDBRANCH  57  58
ENDBRANCH  34  57
ENDBRANCH   3  34
TORSDOF 24
REMARK  Name = ../refined-set-2016/2zz1/2zz1_pocket.pdb
REMARK  211 active torsions:
REMARK  status: ('A' for Active; 'I' for Inactive)
REMARK    1  A    between atoms: _1  and  _3
REMARK    2  A    between atoms: _3  and  _4
REMARK    3  A    between atoms: _3  and  _6
REMARK    4  A    between atoms: _6  and  _7
REMARK    5  A    between atoms: _10  and  _12
REMARK    6  A    between atoms: _12  and  _13
REMARK    7  A    between atoms: _12  and  _15
REMARK    8  A    between atoms: _15  and  _16
REMARK    9  A    between atoms: _19  and  _21
REMARK   10  A    between atoms: _21  and  _22
REMARK   11  A    between atoms: _25  and  _27
REMARK   12  A    between atoms: _27  and  _28
REMARK   13  A    between atoms: _27  and  _30
REMARK   14  A    between atoms: _30  and  _31
REMARK   15  A    between atoms: _31  and  _32
REMARK   16  A    between atoms: _34  and  _36
REMARK   17  A    between atoms: _36  and  _37
REMARK   18  A    between atoms: _36  and  _39
REMARK   19  A    between atoms: _39  and  _40
REMARK   20  A    between atoms: _43  and  _45
REMARK   21  A    between atoms: _45  and  _46
REMARK   22  A    between atoms: _45  and  _48
REMARK   23  A    between atoms: _48  and  _49
REMARK   24  A    between atoms: _49  and  _50
REMARK   25  A    between atoms: _50  and  _51
REMARK   26  A    between atoms: _51  and  _52
REMARK   27  A    between atoms: _56  and  _58
REMARK   28  A    between atoms: _58  and  _59
REMARK   29  A    between atoms: _58  and  _61
REMARK   30  A    between atoms: _61  and  _62
REMARK   31  A    between atoms: _65  and  _67
REMARK   32  A    between atoms: _67  and  _68
REMARK   33  A    between atoms: _70  and  _72
REMARK   34  A    between atoms: _72  and  _73
REMARK   35  A    between atoms: _72  and  _75
REMARK   36  A    between atoms: _75  and  _76
REMARK   37  A    between atoms: _81  and  _82
REMARK   38  A    between atoms: _85  and  _86
REMARK   39  A    between atoms: _91  and  _93
REMARK   40  A    between atoms: _93  and  _94
REMARK   41  A    between atoms: _93  and  _96
REMARK   42  A    between atoms: _96  and  _97
REMARK   43  A    between atoms: _100  and  _102
REMARK   44  A    between atoms: _102  and  _103
REMARK   45  A    between atoms: _102  and  _105
REMARK   46  A    between atoms: _105  and  _106
REMARK   47  A    between atoms: _109  and  _111
REMARK   48  A    between atoms: _111  and  _112
REMARK   49  A    between atoms: _111  and  _114
REMARK   50  A    between atoms: _114  and  _115
REMARK   51  A    between atoms: _121  and  _123
REMARK   52  A    between atoms: _123  and  _124
REMARK   53  A    between atoms: _123  and  _126
REMARK   54  A    between atoms: _126  and  _127
REMARK   55  A    between atoms: _127  and  _128
REMARK   56  A    between atoms: _128  and  _129
REMARK   57  A    between atoms: _129  and  _130
REMARK   58  A    between atoms: _134  and  _136
REMARK   59  A    between atoms: _136  and  _137
REMARK   60  A    between atoms: _136  and  _139
REMARK   61  A    between atoms: _139  and  _140
REMARK   62  A    between atoms: _143  and  _145
REMARK   63  A    between atoms: _145  and  _146
REMARK   64  A    between atoms: _145  and  _148
REMARK   65  A    between atoms: _148  and  _149
REMARK   66  A    between atoms: _154  and  _156
REMARK   67  A    between atoms: _156  and  _157
REMARK   68  A    between atoms: _156  and  _159
REMARK   69  A    between atoms: _159  and  _160
REMARK   70  A    between atoms: _163  and  _165
REMARK   71  A    between atoms: _165  and  _166
REMARK   72  A    between atoms: _165  and  _168
REMARK   73  A    between atoms: _168  and  _169
REMARK   74  A    between atoms: _172  and  _174
REMARK   75  A    between atoms: _174  and  _175
REMARK   76  A    between atoms: _174  and  _177
REMARK   77  A    between atoms: _177  and  _178
REMARK   78  A    between atoms: _178  and  _179
REMARK   79  A    between atoms: _182  and  _184
REMARK   80  A    between atoms: _184  and  _185
REMARK   81  A    between atoms: _184  and  _187
REMARK   82  A    between atoms: _187  and  _188
REMARK   83  A    between atoms: _188  and  _189
REMARK   84  A    between atoms: _191  and  _193
REMARK   85  A    between atoms: _193  and  _194
REMARK   86  A    between atoms: _193  and  _196
REMARK   87  A    between atoms: _196  and  _197
REMARK   88  A    between atoms: _199  and  _201
REMARK   89  A    between atoms: _201  and  _202
REMARK   90  A    between atoms: _201  and  _204
REMARK   91  A    between atoms: _204  and  _205
REMARK   92  A    between atoms: _210  and  _212
REMARK   93  A    between atoms: _212  and  _213
REMARK   94  A    between atoms: _216  and  _218
REMARK   95  A    between atoms: _218  and  _219
REMARK   96  A    between atoms: _218  and  _221
REMARK   97  A    between atoms: _221  and  _222
REMARK   98  A    between atoms: _225  and  _227
REMARK   99  A    between atoms: _227  and  _228
REMARK  100  A    between atoms: _227  and  _230
REMARK  101  A    between atoms: _233  and  _235
REMARK  102  A    between atoms: _235  and  _236
REMARK  103  A    between atoms: _239  and  _240
REMARK  104  A    between atoms: _245  and  _247
REMARK  105  A    between atoms: _247  and  _248
REMARK  106  A    between atoms: _247  and  _250
REMARK  107  A    between atoms: _250  and  _251
REMARK  108  A    between atoms: _253  and  _255
REMARK  109  A    between atoms: _255  and  _256
REMARK  110  A    between atoms: _255  and  _258
REMARK  111  A    between atoms: _258  and  _259
REMARK  112  A    between atoms: _262  and  _264
REMARK  113  A    between atoms: _264  and  _265
REMARK  114  A    between atoms: _264  and  _267
REMARK  115  A    between atoms: _267  and  _268
REMARK  116  A    between atoms: _268  and  _269
REMARK  117  A    between atoms: _269  and  _270
REMARK  118  A    between atoms: _279  and  _281
REMARK  119  A    between atoms: _281  and  _282
REMARK  120  A    between atoms: _281  and  _284
REMARK  121  A    between atoms: _284  and  _285
REMARK  122  A    between atoms: _288  and  _290
REMARK  123  A    between atoms: _290  and  _291
REMARK  124  A    between atoms: _290  and  _293
REMARK  125  A    between atoms: _293  and  _294
REMARK  126  A    between atoms: _297  and  _298
REMARK  127  A    between atoms: _303  and  _305
REMARK  128  A    between atoms: _305  and  _306
REMARK  129  A    between atoms: _308  and  _310
REMARK  130  A    between atoms: _310  and  _311
REMARK  131  A    between atoms: _310  and  _313
REMARK  132  A    between atoms: _316  and  _318
REMARK  133  A    between atoms: _318  and  _319
REMARK  134  A    between atoms: _321  and  _323
REMARK  135  A    between atoms: _323  and  _324
REMARK  136  A    between atoms: _327  and  _329
REMARK  137  A    between atoms: _329  and  _330
REMARK  138  A    between atoms: _329  and  _332
REMARK  139  A    between atoms: _332  and  _333
REMARK  140  A    between atoms: _333  and  _334
REMARK  141  A    between atoms: _339  and  _341
REMARK  142  A    between atoms: _341  and  _342
REMARK  143  A    between atoms: _344  and  _346
REMARK  144  A    between atoms: _346  and  _347
REMARK  145  A    between atoms: _349  and  _351
REMARK  146  A    between atoms: _351  and  _352
REMARK  147  A    between atoms: _351  and  _354
REMARK  148  A    between atoms: _354  and  _355
REMARK  149  A    between atoms: _358  and  _360
REMARK  150  A    between atoms: _360  and  _361
REMARK  151  A    between atoms: _360  and  _363
REMARK  152  A    between atoms: _366  and  _368
REMARK  153  A    between atoms: _368  and  _369
REMARK  154  A    between atoms: _371  and  _373
REMARK  155  A    between atoms: _373  and  _374
REMARK  156  A    between atoms: _373  and  _376
REMARK  157  A    between atoms: _376  and  _377
REMARK  158  A    between atoms: _377  and  _378
REMARK  159  A    between atoms: _378  and  _379
REMARK  160  A    between atoms: _388  and  _390
REMARK  161  A    between atoms: _390  and  _391
REMARK  162  A    between atoms: _390  and  _393
REMARK  163  A    between atoms: _393  and  _394
REMARK  164  A    between atoms: _396  and  _398
REMARK  165  A    between atoms: _398  and  _399
REMARK  166  A    between atoms: _398  and  _401
REMARK  167  A    between atoms: _401  and  _402
REMARK  168  A    between atoms: _405  and  _407
REMARK  169  A    between atoms: _407  and  _408
REMARK  170  A    between atoms: _407  and  _410
REMARK  171  A    between atoms: _410  and  _411
REMARK  172  A    between atoms: _416  and  _417
REMARK  173  A    between atoms: _419  and  _421
REMARK  174  A    between atoms: _421  and  _422
REMARK  175  A    between atoms: _421  and  _424
REMARK  176  A    between atoms: _424  and  _425
REMARK  177  A    between atoms: _428  and  _430
REMARK  178  A    between atoms: _430  and  _431
REMARK  179  A    between atoms: _434  and  _436
REMARK  180  A    between atoms: _436  and  _437
REMARK  181  A    between atoms: _436  and  _439
REMARK  182  A    between atoms: _439  and  _440
REMARK  183  A    between atoms: _443  and  _445
REMARK  184  A    between atoms: _445  and  _446
REMARK  185  A    between atoms: _445  and  _448
REMARK  186  A    between atoms: _448  and  _449
REMARK  187  A    between atoms: _453  and  _454
REMARK  188  A    between atoms: _459  and  _461
REMARK  189  A    between atoms: _461  and  _462
REMARK  190  A    between atoms: _461  and  _464
REMARK  191  A    between atoms: _464  and  _465
REMARK  192  A    between atoms: _465  and  _466
REMARK  193  A    between atoms: _469  and  _471
REMARK  194  A    between atoms: _471  and  _472
REMARK  195  A    between atoms: _471  and  _474
REMARK  196  A    between atoms: _474  and  _475
REMARK  197  A    between atoms: _478  and  _480
REMARK  198  A    between atoms: _480  and  _481
REMARK  199  A    between atoms: _480  and  _483
REMARK  200  A    between atoms: _483  and  _484
REMARK  201  A    between atoms: _489  and  _491
REMARK  202  A    between atoms: _491  and  _492
REMARK  203  A    between atoms: _491  and  _494
REMARK  204  A    between atoms: _494  and  _495
REMARK  205  A    between atoms: _495  and  _496
REMARK  206  A    between atoms: _496  and  _497
REMARK  207  A    between atoms: _497  and  _498
REMARK  208  A    between atoms: _502  and  _504
REMARK  209  A    between atoms: _504  and  _505
REMARK  210  A    between atoms: _504  and  _507
REMARK  211  A    between atoms: _507  and  _508
REMARK                            x       y       z     vdW  Elec       q    Type
REMARK                         _______ _______ _______ _____ _____    ______ ____
ROOT
ATOM      1  CA  LYS A   1      19.171  -9.169  17.967  0.00  0.00    +0.145 C 
ENDROOT
BRANCH   1   2
ATOM      2  C   LYS A   1      18.791  -9.634  19.355  0.00  0.00    +0.238 C 
ATOM      3  N   ILE A   2      19.694 -10.362  20.013  0.00  0.00    -0.298 N 
ATOM      4  H   ILE A   2      20.598 -10.598  19.555  0.00  0.00    +0.150 HD
ATOM      5  O   LYS A   1      17.701  -9.319  19.854  0.00  0.00    -0.274 OA
BRANCH   3   6
ATOM      6  CA  ILE A   2      19.427 -10.831  21.368  0.00  0.00    +0.137 C 
BRANCH   6   7
ATOM      7  C   ILE A   2      19.252  -9.638  22.320  0.00  0.00    +0.227 C 
ATOM      8  O   ILE A   2      18.333  -9.614  23.124  0.00  0.00    -0.286 OA
ENDBRANCH   6   7
BRANCH   6   9
ATOM      9  CB  ILE A   2      20.591 -11.700  21.865  0.00  0.00    +0.026 C 
ATOM     10  CG2 ILE A   2      20.445 -11.980  23.344  0.00  0.00    +0.002 C 
BRANCH   9  11
ATOM     11  CG1 ILE A   2      20.618 -12.997  21.053  0.00  0.00    +0.002 C 
ATOM     12  CD1 ILE A   2      21.854 -13.894  21.268  0.00  0.00    +0.000 C 
ENDBRANCH   9  11
ENDBRANCH   6   9
ENDBRANCH   3   6
ENDBRANCH   1   2
BRANCH   1  13
ATOM     13  N   LYS A   1      20.553  -8.668  17.908  0.00  0.00    -0.238 NA
ATOM     14  H   LYS A   1      21.251  -9.179  17.331  0.00  0.00    +0.142 HD
ENDBRANCH   1  13
BRANCH   1  15
ATOM     15  CB  LYS A   1      18.967 -10.290  16.959  0.00  0.00    +0.026 C 
BRANCH  15  16
ATOM     16  CG  LYS A   1      18.883  -9.775  15.514  0.00  0.00    -0.000 C 
BRANCH  16  17
ATOM     17  CD  LYS A   1      18.725 -10.948  14.566  0.00  0.00    -0.024 C 
BRANCH  17  18
ATOM     18  CE  LYS A   1      18.621 -10.466  13.156  0.00  0.00    -0.086 C 
BRANCH  18  19
ATOM     19  NZ  LYS A   1      18.860 -11.623  12.232  0.00  0.00    +0.380 N 
ATOM     20  HZ1 LYS A   1      18.146 -12.359  12.408  0.00  0.00    -0.089 HD
ATOM     21  HZ2 LYS A   1      19.809 -12.012  12.403  0.00  0.00    -0.089 HD
ATOM     22  HZ3 LYS A   1      18.790 -11.298  11.246  0.00  0.00    -0.089 HD
ENDBRANCH  18  19
ENDBRANCH  17  18
ENDBRANCH  16  17
ENDBRANCH  15  16
ENDBRANCH   1  15
TORSDOF 11
REMARK  Name = ../refined-set-2016/2zz1/2zz1_pocket.pdb
REMARK  211 active torsions:
REMARK  status: ('A' for Active; 'I' for Inactive)
REMARK    1  A    between atoms: _1  and  _3
REMARK    2  A    between atoms: _3  and  _4
REMARK    3  A    between atoms: _3  and  _6
REMARK    4  A    between atoms: _6  and  _7
REMARK    5  A    between atoms: _10  and  _12
REMARK    6  A    between atoms: _12  and  _13
REMARK    7  A    between atoms: _12  and  _15
REMARK    8  A    between atoms: _15  and  _16
REMARK    9  A    between atoms: _19  and  _21
REMARK   10  A    between atoms: _21  and  _22
REMARK   11  A    between atoms: _25  and  _27
REMARK   12  A    between atoms: _27  and  _28
REMARK   13  A    between atoms: _27  and  _30
REMARK   14  A    between atoms: _30  and  _31
REMARK   15  A    between atoms: _31  and  _32
REMARK   16  A    between atoms: _34  and  _36
REMARK   17  A    between atoms: _36  and  _37
REMARK   18  A    between atoms: _36  and  _39
REMARK   19  A    between atoms: _39  and  _40
REMARK   20  A    between atoms: _43  and  _45
REMARK   21  A    between atoms: _45  and  _46
REMARK   22  A    between atoms: _45  and  _48
REMARK   23  A    between atoms: _48  and  _49
REMARK   24  A    between atoms: _49  and  _50
REMARK   25  A    between atoms: _50  and  _51
REMARK   26  A    between atoms: _51  and  _52
REMARK   27  A    between atoms: _56  and  _58
REMARK   28  A    between atoms: _58  and  _59
REMARK   29  A    between atoms: _58  and  _61
REMARK   30  A    between atoms: _61  and  _62
REMARK   31  A    between atoms: _65  and  _67
REMARK   32  A    between atoms: _67  and  _68
REMARK   33  A    between atoms: _70  and  _72
REMARK   34  A    between atoms: _72  and  _73
REMARK   35  A    between atoms: _72  and  _75
REMARK   36  A    between atoms: _75  and  _76
REMARK   37  A    between atoms: _81  and  _82
REMARK   38  A    between atoms: _85  and  _86
REMARK   39  A    between atoms: _91  and  _93
REMARK   40  A    between atoms: _93  and  _94
REMARK   41  A    between atoms: _93  and  _96
REMARK   42  A    between atoms: _96  and  _97
REMARK   43  A    between atoms: _100  and  _102
REMARK   44  A    between atoms: _102  and  _103
REMARK   45  A    between atoms: _102  and  _105
REMARK   46  A    between atoms: _105  and  _106
REMARK   47  A    between atoms: _109  and  _111
REMARK   48  A    between atoms: _111  and  _112
REMARK   49  A    between atoms: _111  and  _114
REMARK   50  A    between atoms: _114  and  _115
REMARK   51  A    between atoms: _121  and  _123
REMARK   52  A    between atoms: _123  and  _124
REMARK   53  A    between atoms: _123  and  _126
REMARK   54  A    between atoms: _126  and  _127
REMARK   55  A    between atoms: _127  and  _128
REMARK   56  A    between atoms: _128  and  _129
REMARK   57  A    between atoms: _129  and  _130
REMARK   58  A    between atoms: _134  and  _136
REMARK   59  A    between atoms: _136  and  _137
REMARK   60  A    between atoms: _136  and  _139
REMARK   61  A    between atoms: _139  and  _140
REMARK   62  A    between atoms: _143  and  _145
REMARK   63  A    between atoms: _145  and  _146
REMARK   64  A    between atoms: _145  and  _148
REMARK   65  A    between atoms: _148  and  _149
REMARK   66  A    between atoms: _154  and  _156
REMARK   67  A    between atoms: _156  and  _157
REMARK   68  A    between atoms: _156  and  _159
REMARK   69  A    between atoms: _159  and  _160
REMARK   70  A    between atoms: _163  and  _165
REMARK   71  A    between atoms: _165  and  _166
REMARK   72  A    between atoms: _165  and  _168
REMARK   73  A    between atoms: _168  and  _169
REMARK   74  A    between atoms: _172  and  _174
REMARK   75  A    between atoms: _174  and  _175
REMARK   76  A    between atoms: _174  and  _177
REMARK   77  A    between atoms: _177  and  _178
REMARK   78  A    between atoms: _178  and  _179
REMARK   79  A    between atoms: _182  and  _184
REMARK   80  A    between atoms: _184  and  _185
REMARK   81  A    between atoms: _184  and  _187
REMARK   82  A    between atoms: _187  and  _188
REMARK   83  A    between atoms: _188  and  _189
REMARK   84  A    between atoms: _191  and  _193
REMARK   85  A    between atoms: _193  and  _194
REMARK   86  A    between atoms: _193  and  _196
REMARK   87  A    between atoms: _196  and  _197
REMARK   88  A    between atoms: _199  and  _201
REMARK   89  A    between atoms: _201  and  _202
REMARK   90  A    between atoms: _201  and  _204
REMARK   91  A    between atoms: _204  and  _205
REMARK   92  A    between atoms: _210  and  _212
REMARK   93  A    between atoms: _212  and  _213
REMARK   94  A    between atoms: _216  and  _218
REMARK   95  A    between atoms: _218  and  _219
REMARK   96  A    between atoms: _218  and  _221
REMARK   97  A    between atoms: _221  and  _222
REMARK   98  A    between atoms: _225  and  _227
REMARK   99  A    between atoms: _227  and  _228
REMARK  100  A    between atoms: _227  and  _230
REMARK  101  A    between atoms: _233  and  _235
REMARK  102  A    between atoms: _235  and  _236
REMARK  103  A    between atoms: _239  and  _240
REMARK  104  A    between atoms: _245  and  _247
REMARK  105  A    between atoms: _247  and  _248
REMARK  106  A    between atoms: _247  and  _250
REMARK  107  A    between atoms: _250  and  _251
REMARK  108  A    between atoms: _253  and  _255
REMARK  109  A    between atoms: _255  and  _256
REMARK  110  A    between atoms: _255  and  _258
REMARK  111  A    between atoms: _258  and  _259
REMARK  112  A    between atoms: _262  and  _264
REMARK  113  A    between atoms: _264  and  _265
REMARK  114  A    between atoms: _264  and  _267
REMARK  115  A    between atoms: _267  and  _268
REMARK  116  A    between atoms: _268  and  _269
REMARK  117  A    between atoms: _269  and  _270
REMARK  118  A    between atoms: _279  and  _281
REMARK  119  A    between atoms: _281  and  _282
REMARK  120  A    between atoms: _281  and  _284
REMARK  121  A    between atoms: _284  and  _285
REMARK  122  A    between atoms: _288  and  _290
REMARK  123  A    between atoms: _290  and  _291
REMARK  124  A    between atoms: _290  and  _293
REMARK  125  A    between atoms: _293  and  _294
REMARK  126  A    between atoms: _297  and  _298
REMARK  127  A    between atoms: _303  and  _305
REMARK  128  A    between atoms: _305  and  _306
REMARK  129  A    between atoms: _308  and  _310
REMARK  130  A    between atoms: _310  and  _311
REMARK  131  A    between atoms: _310  and  _313
REMARK  132  A    between atoms: _316  and  _318
REMARK  133  A    between atoms: _318  and  _319
REMARK  134  A    between atoms: _321  and  _323
REMARK  135  A    between atoms: _323  and  _324
REMARK  136  A    between atoms: _327  and  _329
REMARK  137  A    between atoms: _329  and  _330
REMARK  138  A    between atoms: _329  and  _332
REMARK  139  A    between atoms: _332  and  _333
REMARK  140  A    between atoms: _333  and  _334
REMARK  141  A    between atoms: _339  and  _341
REMARK  142  A    between atoms: _341  and  _342
REMARK  143  A    between atoms: _344  and  _346
REMARK  144  A    between atoms: _346  and  _347
REMARK  145  A    between atoms: _349  and  _351
REMARK  146  A    between atoms: _351  and  _352
REMARK  147  A    between atoms: _351  and  _354
REMARK  148  A    between atoms: _354  and  _355
REMARK  149  A    between atoms: _358  and  _360
REMARK  150  A    between atoms: _360  and  _361
REMARK  151  A    between atoms: _360  and  _363
REMARK  152  A    between atoms: _366  and  _368
REMARK  153  A    between atoms: _368  and  _369
REMARK  154  A    between atoms: _371  and  _373
REMARK  155  A    between atoms: _373  and  _374
REMARK  156  A    between atoms: _373  and  _376
REMARK  157  A    between atoms: _376  and  _377
REMARK  158  A    between atoms: _377  and  _378
REMARK  159  A    between atoms: _378  and  _379
REMARK  160  A    between atoms: _388  and  _390
REMARK  161  A    between atoms: _390  and  _391
REMARK  162  A    between atoms: _390  and  _393
REMARK  163  A    between atoms: _393  and  _394
REMARK  164  A    between atoms: _396  and  _398
REMARK  165  A    between atoms: _398  and  _399
REMARK  166  A    between atoms: _398  and  _401
REMARK  167  A    between atoms: _401  and  _402
REMARK  168  A    between atoms: _405  and  _407
REMARK  169  A    between atoms: _407  and  _408
REMARK  170  A    between atoms: _407  and  _410
REMARK  171  A    between atoms: _410  and  _411
REMARK  172  A    between atoms: _416  and  _417
REMARK  173  A    between atoms: _419  and  _421
REMARK  174  A    between atoms: _421  and  _422
REMARK  175  A    between atoms: _421  and  _424
REMARK  176  A    between atoms: _424  and  _425
REMARK  177  A    between atoms: _428  and  _430
REMARK  178  A    between atoms: _430  and  _431
REMARK  179  A    between atoms: _434  and  _436
REMARK  180  A    between atoms: _436  and  _437
REMARK  181  A    between atoms: _436  and  _439
REMARK  182  A    between atoms: _439  and  _440
REMARK  183  A    between atoms: _443  and  _445
REMARK  184  A    between atoms: _445  and  _446
REMARK  185  A    between atoms: _445  and  _448
REMARK  186  A    between atoms: _448  and  _449
REMARK  187  A    between atoms: _453  and  _454
REMARK  188  A    between atoms: _459  and  _461
REMARK  189  A    between atoms: _461  and  _462
REMARK  190  A    between atoms: _461  and  _464
REMARK  191  A    between atoms: _464  and  _465
REMARK  192  A    between atoms: _465  and  _466
REMARK  193  A    between atoms: _469  and  _471
REMARK  194  A    between atoms: _471  and  _472
REMARK  195  A    between atoms: _471  and  _474
REMARK  196  A    between atoms: _474  and  _475
REMARK  197  A    between atoms: _478  and  _480
REMARK  198  A    between atoms: _480  and  _481
REMARK  199  A    between atoms: _480  and  _483
REMARK  200  A    between atoms: _483  and  _484
REMARK  201  A    between atoms: _489  and  _491
REMARK  202  A    between atoms: _491  and  _492
REMARK  203  A    between atoms: _491  and  _494
REMARK  204  A    between atoms: _494  and  _495
REMARK  205  A    between atoms: _495  and  _496
REMARK  206  A    between atoms: _496  and  _497
REMARK  207  A    between atoms: _497  and  _498
REMARK  208  A    between atoms: _502  and  _504
REMARK  209  A    between atoms: _504  and  _505
REMARK  210  A    between atoms: _504  and  _507
REMARK  211  A    between atoms: _507  and  _508
REMARK                            x       y       z     vdW  Elec       q    Type
REMARK                         _______ _______ _______ _____ _____    ______ ____
ROOT
ATOM      1  O   HOH     1      27.480 -15.959   6.862  0.00  0.00    +0.000 OA
ENDROOT
TORSDOF 0
REMARK  Name = ../refined-set-2016/2zz1/2zz1_pocket.pdb
REMARK  211 active torsions:
REMARK  status: ('A' for Active; 'I' for Inactive)
REMARK    1  A    between atoms: _1  and  _3
REMARK    2  A    between atoms: _3  and  _4
REMARK    3  A    between atoms: _3  and  _6
REMARK    4  A    between atoms: _6  and  _7
REMARK    5  A    between atoms: _10  and  _12
REMARK    6  A    between atoms: _12  and  _13
REMARK    7  A    between atoms: _12  and  _15
REMARK    8  A    between atoms: _15  and  _16
REMARK    9  A    between atoms: _19  and  _21
REMARK   10  A    between atoms: _21  and  _22
REMARK   11  A    between atoms: _25  and  _27
REMARK   12  A    between atoms: _27  and  _28
REMARK   13  A    between atoms: _27  and  _30
REMARK   14  A    between atoms: _30  and  _31
REMARK   15  A    between atoms: _31  and  _32
REMARK   16  A    between atoms: _34  and  _36
REMARK   17  A    between atoms: _36  and  _37
REMARK   18  A    between atoms: _36  and  _39
REMARK   19  A    between atoms: _39  and  _40
REMARK   20  A    between atoms: _43  and  _45
REMARK   21  A    between atoms: _45  and  _46
REMARK   22  A    between atoms: _45  and  _48
REMARK   23  A    between atoms: _48  and  _49
REMARK   24  A    between atoms: _49  and  _50
REMARK   25  A    between atoms: _50  and  _51
REMARK   26  A    between atoms: _51  and  _52
REMARK   27  A    between atoms: _56  and  _58
REMARK   28  A    between atoms: _58  and  _59
REMARK   29  A    between atoms: _58  and  _61
REMARK   30  A    between atoms: _61  and  _62
REMARK   31  A    between atoms: _65  and  _67
REMARK   32  A    between atoms: _67  and  _68
REMARK   33  A    between atoms: _70  and  _72
REMARK   34  A    between atoms: _72  and  _73
REMARK   35  A    between atoms: _72  and  _75
REMARK   36  A    between atoms: _75  and  _76
REMARK   37  A    between atoms: _81  and  _82
REMARK   38  A    between atoms: _85  and  _86
REMARK   39  A    between atoms: _91  and  _93
REMARK   40  A    between atoms: _93  and  _94
REMARK   41  A    between atoms: _93  and  _96
REMARK   42  A    between atoms: _96  and  _97
REMARK   43  A    between atoms: _100  and  _102
REMARK   44  A    between atoms: _102  and  _103
REMARK   45  A    between atoms: _102  and  _105
REMARK   46  A    between atoms: _105  and  _106
REMARK   47  A    between atoms: _109  and  _111
REMARK   48  A    between atoms: _111  and  _112
REMARK   49  A    between atoms: _111  and  _114
REMARK   50  A    between atoms: _114  and  _115
REMARK   51  A    between atoms: _121  and  _123
REMARK   52  A    between atoms: _123  and  _124
REMARK   53  A    between atoms: _123  and  _126
REMARK   54  A    between atoms: _126  and  _127
REMARK   55  A    between atoms: _127  and  _128
REMARK   56  A    between atoms: _128  and  _129
REMARK   57  A    between atoms: _129  and  _130
REMARK   58  A    between atoms: _134  and  _136
REMARK   59  A    between atoms: _136  and  _137
REMARK   60  A    between atoms: _136  and  _139
REMARK   61  A    between atoms: _139  and  _140
REMARK   62  A    between atoms: _143  and  _145
REMARK   63  A    between atoms: _145  and  _146
REMARK   64  A    between atoms: _145  and  _148
REMARK   65  A    between atoms: _148  and  _149
REMARK   66  A    between atoms: _154  and  _156
REMARK   67  A    between atoms: _156  and  _157
REMARK   68  A    between atoms: _156  and  _159
REMARK   69  A    between atoms: _159  and  _160
REMARK   70  A    between atoms: _163  and  _165
REMARK   71  A    between atoms: _165  and  _166
REMARK   72  A    between atoms: _165  and  _168
REMARK   73  A    between atoms: _168  and  _169
REMARK   74  A    between atoms: _172  and  _174
REMARK   75  A    between atoms: _174  and  _175
REMARK   76  A    between atoms: _174  and  _177
REMARK   77  A    between atoms: _177  and  _178
REMARK   78  A    between atoms: _178  and  _179
REMARK   79  A    between atoms: _182  and  _184
REMARK   80  A    between atoms: _184  and  _185
REMARK   81  A    between atoms: _184  and  _187
REMARK   82  A    between atoms: _187  and  _188
REMARK   83  A    between atoms: _188  and  _189
REMARK   84  A    between atoms: _191  and  _193
REMARK   85  A    between atoms: _193  and  _194
REMARK   86  A    between atoms: _193  and  _196
REMARK   87  A    between atoms: _196  and  _197
REMARK   88  A    between atoms: _199  and  _201
REMARK   89  A    between atoms: _201  and  _202
REMARK   90  A    between atoms: _201  and  _204
REMARK   91  A    between atoms: _204  and  _205
REMARK   92  A    between atoms: _210  and  _212
REMARK   93  A    between atoms: _212  and  _213
REMARK   94  A    between atoms: _216  and  _218
REMARK   95  A    between atoms: _218  and  _219
REMARK   96  A    between atoms: _218  and  _221
REMARK   97  A    between atoms: _221  and  _222
REMARK   98  A    between atoms: _225  and  _227
REMARK   99  A    between atoms: _227  and  _228
REMARK  100  A    between atoms: _227  and  _230
REMARK  101  A    between atoms: _233  and  _235
REMARK  102  A    between atoms: _235  and  _236
REMARK  103  A    between atoms: _239  and  _240
REMARK  104  A    between atoms: _245  and  _247
REMARK  105  A    between atoms: _247  and  _248
REMARK  106  A    between atoms: _247  and  _250
REMARK  107  A    between atoms: _250  and  _251
REMARK  108  A    between atoms: _253  and  _255
REMARK  109  A    between atoms: _255  and  _256
REMARK  110  A    between atoms: _255  and  _258
REMARK  111  A    between atoms: _258  and  _259
REMARK  112  A    between atoms: _262  and  _264
REMARK  113  A    between atoms: _264  and  _265
REMARK  114  A    between atoms: _264  and  _267
REMARK  115  A    between atoms: _267  and  _268
REMARK  116  A    between atoms: _268  and  _269
REMARK  117  A    between atoms: _269  and  _270
REMARK  118  A    between atoms: _279  and  _281
REMARK  119  A    between atoms: _281  and  _282
REMARK  120  A    between atoms: _281  and  _284
REMARK  121  A    between atoms: _284  and  _285
REMARK  122  A    between atoms: _288  and  _290
REMARK  123  A    between atoms: _290  and  _291
REMARK  124  A    between atoms: _290  and  _293
REMARK  125  A    between atoms: _293  and  _294
REMARK  126  A    between atoms: _297  and  _298
REMARK  127  A    between atoms: _303  and  _305
REMARK  128  A    between atoms: _305  and  _306
REMARK  129  A    between atoms: _308  and  _310
REMARK  130  A    between atoms: _310  and  _311
REMARK  131  A    between atoms: _310  and  _313
REMARK  132  A    between atoms: _316  and  _318
REMARK  133  A    between atoms: _318  and  _319
REMARK  134  A    between atoms: _321  and  _323
REMARK  135  A    between atoms: _323  and  _324
REMARK  136  A    between atoms: _327  and  _329
REMARK  137  A    between atoms: _329  and  _330
REMARK  138  A    between atoms: _329  and  _332
REMARK  139  A    between atoms: _332  and  _333
REMARK  140  A    between atoms: _333  and  _334
REMARK  141  A    between atoms: _339  and  _341
REMARK  142  A    between atoms: _341  and  _342
REMARK  143  A    between atoms: _344  and  _346
REMARK  144  A    between atoms: _346  and  _347
REMARK  145  A    between atoms: _349  and  _351
REMARK  146  A    between atoms: _351  and  _352
REMARK  147  A    between atoms: _351  and  _354
REMARK  148  A    between atoms: _354  and  _355
REMARK  149  A    between atoms: _358  and  _360
REMARK  150  A    between atoms: _360  and  _361
REMARK  151  A    between atoms: _360  and  _363
REMARK  152  A    between atoms: _366  and  _368
REMARK  153  A    between atoms: _368  and  _369
REMARK  154  A    between atoms: _371  and  _373
REMARK  155  A    between atoms: _373  and  _374
REMARK  156  A    between atoms: _373  and  _376
REMARK  157  A    between atoms: _376  and  _377
REMARK  158  A    between atoms: _377  and  _378
REMARK  159  A    between atoms: _378  and  _379
REMARK  160  A    between atoms: _388  and  _390
REMARK  161  A    between atoms: _390  and  _391
REMARK  162  A    between atoms: _390  and  _393
REMARK  163  A    between atoms: _393  and  _394
REMARK  164  A    between atoms: _396  and  _398
REMARK  165  A    between atoms: _398  and  _399
REMARK  166  A    between atoms: _398  and  _401
REMARK  167  A    between atoms: _401  and  _402
REMARK  168  A    between atoms: _405  and  _407
REMARK  169  A    between atoms: _407  and  _408
REMARK  170  A    between atoms: _407  and  _410
REMARK  171  A    between atoms: _410  and  _411
REMARK  172  A    between atoms: _416  and  _417
REMARK  173  A    between atoms: _419  and  _421
REMARK  174  A    between atoms: _421  and  _422
REMARK  175  A    between atoms: _421  and  _424
REMARK  176  A    between atoms: _424  and  _425
REMARK  177  A    between atoms: _428  and  _430
REMARK  178  A    between atoms: _430  and  _431
REMARK  179  A    between atoms: _434  and  _436
REMARK  180  A    between atoms: _436  and  _437
REMARK  181  A    between atoms: _436  and  _439
REMARK  182  A    between atoms: _439  and  _440
REMARK  183  A    between atoms: _443  and  _445
REMARK  184  A    between atoms: _445  and  _446
REMARK  185  A    between atoms: _445  and  _448
REMARK  186  A    between atoms: _448  and  _449
REMARK  187  A    between atoms: _453  and  _454
REMARK  188  A    between atoms: _459  and  _461
REMARK  189  A    between atoms: _461  and  _462
REMARK  190  A    between atoms: _461  and  _464
REMARK  191  A    between atoms: _464  and  _465
REMARK  192  A    between atoms: _465  and  _466
REMARK  193  A    between atoms: _469  and  _471
REMARK  194  A    between atoms: _471  and  _472
REMARK  195  A    between atoms: _471  and  _474
REMARK  196  A    between atoms: _474  and  _475
REMARK  197  A    between atoms: _478  and  _480
REMARK  198  A    between atoms: _480  and  _481
REMARK  199  A    between atoms: _480  and  _483
REMARK  200  A    between atoms: _483  and  _484
REMARK  201  A    between atoms: _489  and  _491
REMARK  202  A    between atoms: _491  and  _492
REMARK  203  A    between atoms: _491  and  _494
REMARK  204  A    between atoms: _494  and  _495
REMARK  205  A    between atoms: _495  and  _496
REMARK  206  A    between atoms: _496  and  _497
REMARK  207  A    between atoms: _497  and  _498
REMARK  208  A    between atoms: _502  and  _504
REMARK  209  A    between atoms: _504  and  _505
REMARK  210  A    between atoms: _504  and  _507
REMARK  211  A    between atoms: _507  and  _508
REMARK                            x       y       z     vdW  Elec       q    Type
REMARK                         _______ _______ _______ _____ _____    ______ ____
ROOT
ATOM      1  O   HOH     1      24.415 -16.164   5.055  0.00  0.00    +0.000 OA
ENDROOT
TORSDOF 0
REMARK  Name = ../refined-set-2016/2zz1/2zz1_pocket.pdb
REMARK  211 active torsions:
REMARK  status: ('A' for Active; 'I' for Inactive)
REMARK    1  A    between atoms: _1  and  _3
REMARK    2  A    between atoms: _3  and  _4
REMARK    3  A    between atoms: _3  and  _6
REMARK    4  A    between atoms: _6  and  _7
REMARK    5  A    between atoms: _10  and  _12
REMARK    6  A    between atoms: _12  and  _13
REMARK    7  A    between atoms: _12  and  _15
REMARK    8  A    between atoms: _15  and  _16
REMARK    9  A    between atoms: _19  and  _21
REMARK   10  A    between atoms: _21  and  _22
REMARK   11  A    between atoms: _25  and  _27
REMARK   12  A    between atoms: _27  and  _28
REMARK   13  A    between atoms: _27  and  _30
REMARK   14  A    between atoms: _30  and  _31
REMARK   15  A    between atoms: _31  and  _32
REMARK   16  A    between atoms: _34  and  _36
REMARK   17  A    between atoms: _36  and  _37
REMARK   18  A    between atoms: _36  and  _39
REMARK   19  A    between atoms: _39  and  _40
REMARK   20  A    between atoms: _43  and  _45
REMARK   21  A    between atoms: _45  and  _46
REMARK   22  A    between atoms: _45  and  _48
REMARK   23  A    between atoms: _48  and  _49
REMARK   24  A    between atoms: _49  and  _50
REMARK   25  A    between atoms: _50  and  _51
REMARK   26  A    between atoms: _51  and  _52
REMARK   27  A    between atoms: _56  and  _58
REMARK   28  A    between atoms: _58  and  _59
REMARK   29  A    between atoms: _58  and  _61
REMARK   30  A    between atoms: _61  and  _62
REMARK   31  A    between atoms: _65  and  _67
REMARK   32  A    between atoms: _67  and  _68
REMARK   33  A    between atoms: _70  and  _72
REMARK   34  A    between atoms: _72  and  _73
REMARK   35  A    between atoms: _72  and  _75
REMARK   36  A    between atoms: _75  and  _76
REMARK   37  A    between atoms: _81  and  _82
REMARK   38  A    between atoms: _85  and  _86
REMARK   39  A    between atoms: _91  and  _93
REMARK   40  A    between atoms: _93  and  _94
REMARK   41  A    between atoms: _93  and  _96
REMARK   42  A    between atoms: _96  and  _97
REMARK   43  A    between atoms: _100  and  _102
REMARK   44  A    between atoms: _102  and  _103
REMARK   45  A    between atoms: _102  and  _105
REMARK   46  A    between atoms: _105  and  _106
REMARK   47  A    between atoms: _109  and  _111
REMARK   48  A    between atoms: _111  and  _112
REMARK   49  A    between atoms: _111  and  _114
REMARK   50  A    between atoms: _114  and  _115
REMARK   51  A    between atoms: _121  and  _123
REMARK   52  A    between atoms: _123  and  _124
REMARK   53  A    between atoms: _123  and  _126
REMARK   54  A    between atoms: _126  and  _127
REMARK   55  A    between atoms: _127  and  _128
REMARK   56  A    between atoms: _128  and  _129
REMARK   57  A    between atoms: _129  and  _130
REMARK   58  A    between atoms: _134  and  _136
REMARK   59  A    between atoms: _136  and  _137
REMARK   60  A    between atoms: _136  and  _139
REMARK   61  A    between atoms: _139  and  _140
REMARK   62  A    between atoms: _143  and  _145
REMARK   63  A    between atoms: _145  and  _146
REMARK   64  A    between atoms: _145  and  _148
REMARK   65  A    between atoms: _148  and  _149
REMARK   66  A    between atoms: _154  and  _156
REMARK   67  A    between atoms: _156  and  _157
REMARK   68  A    between atoms: _156  and  _159
REMARK   69  A    between atoms: _159  and  _160
REMARK   70  A    between atoms: _163  and  _165
REMARK   71  A    between atoms: _165  and  _166
REMARK   72  A    between atoms: _165  and  _168
REMARK   73  A    between atoms: _168  and  _169
REMARK   74  A    between atoms: _172  and  _174
REMARK   75  A    between atoms: _174  and  _175
REMARK   76  A    between atoms: _174  and  _177
REMARK   77  A    between atoms: _177  and  _178
REMARK   78  A    between atoms: _178  and  _179
REMARK   79  A    between atoms: _182  and  _184
REMARK   80  A    between atoms: _184  and  _185
REMARK   81  A    between atoms: _184  and  _187
REMARK   82  A    between atoms: _187  and  _188
REMARK   83  A    between atoms: _188  and  _189
REMARK   84  A    between atoms: _191  and  _193
REMARK   85  A    between atoms: _193  and  _194
REMARK   86  A    between atoms: _193  and  _196
REMARK   87  A    between atoms: _196  and  _197
REMARK   88  A    between atoms: _199  and  _201
REMARK   89  A    between atoms: _201  and  _202
REMARK   90  A    between atoms: _201  and  _204
REMARK   91  A    between atoms: _204  and  _205
REMARK   92  A    between atoms: _210  and  _212
REMARK   93  A    between atoms: _212  and  _213
REMARK   94  A    between atoms: _216  and  _218
REMARK   95  A    between atoms: _218  and  _219
REMARK   96  A    between atoms: _218  and  _221
REMARK   97  A    between atoms: _221  and  _222
REMARK   98  A    between atoms: _225  and  _227
REMARK   99  A    between atoms: _227  and  _228
REMARK  100  A    between atoms: _227  and  _230
REMARK  101  A    between atoms: _233  and  _235
REMARK  102  A    between atoms: _235  and  _236
REMARK  103  A    between atoms: _239  and  _240
REMARK  104  A    between atoms: _245  and  _247
REMARK  105  A    between atoms: _247  and  _248
REMARK  106  A    between atoms: _247  and  _250
REMARK  107  A    between atoms: _250  and  _251
REMARK  108  A    between atoms: _253  and  _255
REMARK  109  A    between atoms: _255  and  _256
REMARK  110  A    between atoms: _255  and  _258
REMARK  111  A    between atoms: _258  and  _259
REMARK  112  A    between atoms: _262  and  _264
REMARK  113  A    between atoms: _264  and  _265
REMARK  114  A    between atoms: _264  and  _267
REMARK  115  A    between atoms: _267  and  _268
REMARK  116  A    between atoms: _268  and  _269
REMARK  117  A    between atoms: _269  and  _270
REMARK  118  A    between atoms: _279  and  _281
REMARK  119  A    between atoms: _281  and  _282
REMARK  120  A    between atoms: _281  and  _284
REMARK  121  A    between atoms: _284  and  _285
REMARK  122  A    between atoms: _288  and  _290
REMARK  123  A    between atoms: _290  and  _291
REMARK  124  A    between atoms: _290  and  _293
REMARK  125  A    between atoms: _293  and  _294
REMARK  126  A    between atoms: _297  and  _298
REMARK  127  A    between atoms: _303  and  _305
REMARK  128  A    between atoms: _305  and  _306
REMARK  129  A    between atoms: _308  and  _310
REMARK  130  A    between atoms: _310  and  _311
REMARK  131  A    between atoms: _310  and  _313
REMARK  132  A    between atoms: _316  and  _318
REMARK  133  A    between atoms: _318  and  _319
REMARK  134  A    between atoms: _321  and  _323
REMARK  135  A    between atoms: _323  and  _324
REMARK  136  A    between atoms: _327  and  _329
REMARK  137  A    between atoms: _329  and  _330
REMARK  138  A    between atoms: _329  and  _332
REMARK  139  A    between atoms: _332  and  _333
REMARK  140  A    between atoms: _333  and  _334
REMARK  141  A    between atoms: _339  and  _341
REMARK  142  A    between atoms: _341  and  _342
REMARK  143  A    between atoms: _344  and  _346
REMARK  144  A    between atoms: _346  and  _347
REMARK  145  A    between atoms: _349  and  _351
REMARK  146  A    between atoms: _351  and  _352
REMARK  147  A    between atoms: _351  and  _354
REMARK  148  A    between atoms: _354  and  _355
REMARK  149  A    between atoms: _358  and  _360
REMARK  150  A    between atoms: _360  and  _361
REMARK  151  A    between atoms: _360  and  _363
REMARK  152  A    between atoms: _366  and  _368
REMARK  153  A    between atoms: _368  and  _369
REMARK  154  A    between atoms: _371  and  _373
REMARK  155  A    between atoms: _373  and  _374
REMARK  156  A    between atoms: _373  and  _376
REMARK  157  A    between atoms: _376  and  _377
REMARK  158  A    between atoms: _377  and  _378
REMARK  159  A    between atoms: _378  and  _379
REMARK  160  A    between atoms: _388  and  _390
REMARK  161  A    between atoms: _390  and  _391
REMARK  162  A    between atoms: _390  and  _393
REMARK  163  A    between atoms: _393  and  _394
REMARK  164  A    between atoms: _396  and  _398
REMARK  165  A    between atoms: _398  and  _399
REMARK  166  A    between atoms: _398  and  _401
REMARK  167  A    between atoms: _401  and  _402
REMARK  168  A    between atoms: _405  and  _407
REMARK  169  A    between atoms: _407  and  _408
REMARK  170  A    between atoms: _407  and  _410
REMARK  171  A    between atoms: _410  and  _411
REMARK  172  A    between atoms: _416  and  _417
REMARK  173  A    between atoms: _419  and  _421
REMARK  174  A    between atoms: _421  and  _422
REMARK  175  A    between atoms: _421  and  _424
REMARK  176  A    between atoms: _424  and  _425
REMARK  177  A    between atoms: _428  and  _430
REMARK  178  A    between atoms: _430  and  _431
REMARK  179  A    between atoms: _434  and  _436
REMARK  180  A    between atoms: _436  and  _437
REMARK  181  A    between atoms: _436  and  _439
REMARK  182  A    between atoms: _439  and  _440
REMARK  183  A    between atoms: _443  and  _445
REMARK  184  A    between atoms: _445  and  _446
REMARK  185  A    between atoms: _445  and  _448
REMARK  186  A    between atoms: _448  and  _449
REMARK  187  A    between atoms: _453  and  _454
REMARK  188  A    between atoms: _459  and  _461
REMARK  189  A    between atoms: _461  and  _462
REMARK  190  A    between atoms: _461  and  _464
REMARK  191  A    between atoms: _464  and  _465
REMARK  192  A    between atoms: _465  and  _466
REMARK  193  A    between atoms: _469  and  _471
REMARK  194  A    between atoms: _471  and  _472
REMARK  195  A    between atoms: _471  and  _474
REMARK  196  A    between atoms: _474  and  _475
REMARK  197  A    between atoms: _478  and  _480
REMARK  198  A    between atoms: _480  and  _481
REMARK  199  A    between atoms: _480  and  _483
REMARK  200  A    between atoms: _483  and  _484
REMARK  201  A    between atoms: _489  and  _491
REMARK  202  A    between atoms: _491  and  _492
REMARK  203  A    between atoms: _491  and  _494
REMARK  204  A    between atoms: _494  and  _495
REMARK  205  A    between atoms: _495  and  _496
REMARK  206  A    between atoms: _496  and  _497
REMARK  207  A    between atoms: _497  and  _498
REMARK  208  A    between atoms: _502  and  _504
REMARK  209  A    between atoms: _504  and  _505
REMARK  210  A    between atoms: _504  and  _507
REMARK  211  A    between atoms: _507  and  _508
REMARK                            x       y       z     vdW  Elec       q    Type
REMARK                         _______ _______ _______ _____ _____    ______ ____
ROOT
ATOM      1  O   HOH     1      17.132 -17.703  15.833  0.00  0.00    +0.000 OA
ENDROOT
TORSDOF 0
REMARK  Name = ../refined-set-2016/2zz1/2zz1_pocket.pdb
REMARK  211 active torsions:
REMARK  status: ('A' for Active; 'I' for Inactive)
REMARK    1  A    between atoms: _1  and  _3
REMARK    2  A    between atoms: _3  and  _4
REMARK    3  A    between atoms: _3  and  _6
REMARK    4  A    between atoms: _6  and  _7
REMARK    5  A    between atoms: _10  and  _12
REMARK    6  A    between atoms: _12  and  _13
REMARK    7  A    between atoms: _12  and  _15
REMARK    8  A    between atoms: _15  and  _16
REMARK    9  A    between atoms: _19  and  _21
REMARK   10  A    between atoms: _21  and  _22
REMARK   11  A    between atoms: _25  and  _27
REMARK   12  A    between atoms: _27  and  _28
REMARK   13  A    between atoms: _27  and  _30
REMARK   14  A    between atoms: _30  and  _31
REMARK   15  A    between atoms: _31  and  _32
REMARK   16  A    between atoms: _34  and  _36
REMARK   17  A    between atoms: _36  and  _37
REMARK   18  A    between atoms: _36  and  _39
REMARK   19  A    between atoms: _39  and  _40
REMARK   20  A    between atoms: _43  and  _45
REMARK   21  A    between atoms: _45  and  _46
REMARK   22  A    between atoms: _45  and  _48
REMARK   23  A    between atoms: _48  and  _49
REMARK   24  A    between atoms: _49  and  _50
REMARK   25  A    between atoms: _50  and  _51
REMARK   26  A    between atoms: _51  and  _52
REMARK   27  A    between atoms: _56  and  _58
REMARK   28  A    between atoms: _58  and  _59
REMARK   29  A    between atoms: _58  and  _61
REMARK   30  A    between atoms: _61  and  _62
REMARK   31  A    between atoms: _65  and  _67
REMARK   32  A    between atoms: _67  and  _68
REMARK   33  A    between atoms: _70  and  _72
REMARK   34  A    between atoms: _72  and  _73
REMARK   35  A    between atoms: _72  and  _75
REMARK   36  A    between atoms: _75  and  _76
REMARK   37  A    between atoms: _81  and  _82
REMARK   38  A    between atoms: _85  and  _86
REMARK   39  A    between atoms: _91  and  _93
REMARK   40  A    between atoms: _93  and  _94
REMARK   41  A    between atoms: _93  and  _96
REMARK   42  A    between atoms: _96  and  _97
REMARK   43  A    between atoms: _100  and  _102
REMARK   44  A    between atoms: _102  and  _103
REMARK   45  A    between atoms: _102  and  _105
REMARK   46  A    between atoms: _105  and  _106
REMARK   47  A    between atoms: _109  and  _111
REMARK   48  A    between atoms: _111  and  _112
REMARK   49  A    between atoms: _111  and  _114
REMARK   50  A    between atoms: _114  and  _115
REMARK   51  A    between atoms: _121  and  _123
REMARK   52  A    between atoms: _123  and  _124
REMARK   53  A    between atoms: _123  and  _126
REMARK   54  A    between atoms: _126  and  _127
REMARK   55  A    between atoms: _127  and  _128
REMARK   56  A    between atoms: _128  and  _129
REMARK   57  A    between atoms: _129  and  _130
REMARK   58  A    between atoms: _134  and  _136
REMARK   59  A    between atoms: _136  and  _137
REMARK   60  A    between atoms: _136  and  _139
REMARK   61  A    between atoms: _139  and  _140
REMARK   62  A    between atoms: _143  and  _145
REMARK   63  A    between atoms: _145  and  _146
REMARK   64  A    between atoms: _145  and  _148
REMARK   65  A    between atoms: _148  and  _149
REMARK   66  A    between atoms: _154  and  _156
REMARK   67  A    between atoms: _156  and  _157
REMARK   68  A    between atoms: _156  and  _159
REMARK   69  A    between atoms: _159  and  _160
REMARK   70  A    between atoms: _163  and  _165
REMARK   71  A    between atoms: _165  and  _166
REMARK   72  A    between atoms: _165  and  _168
REMARK   73  A    between atoms: _168  and  _169
REMARK   74  A    between atoms: _172  and  _174
REMARK   75  A    between atoms: _174  and  _175
REMARK   76  A    between atoms: _174  and  _177
REMARK   77  A    between atoms: _177  and  _178
REMARK   78  A    between atoms: _178  and  _179
REMARK   79  A    between atoms: _182  and  _184
REMARK   80  A    between atoms: _184  and  _185
REMARK   81  A    between atoms: _184  and  _187
REMARK   82  A    between atoms: _187  and  _188
REMARK   83  A    between atoms: _188  and  _189
REMARK   84  A    between atoms: _191  and  _193
REMARK   85  A    between atoms: _193  and  _194
REMARK   86  A    between atoms: _193  and  _196
REMARK   87  A    between atoms: _196  and  _197
REMARK   88  A    between atoms: _199  and  _201
REMARK   89  A    between atoms: _201  and  _202
REMARK   90  A    between atoms: _201  and  _204
REMARK   91  A    between atoms: _204  and  _205
REMARK   92  A    between atoms: _210  and  _212
REMARK   93  A    between atoms: _212  and  _213
REMARK   94  A    between atoms: _216  and  _218
REMARK   95  A    between atoms: _218  and  _219
REMARK   96  A    between atoms: _218  and  _221
REMARK   97  A    between atoms: _221  and  _222
REMARK   98  A    between atoms: _225  and  _227
REMARK   99  A    between atoms: _227  and  _228
REMARK  100  A    between atoms: _227  and  _230
REMARK  101  A    between atoms: _233  and  _235
REMARK  102  A    between atoms: _235  and  _236
REMARK  103  A    between atoms: _239  and  _240
REMARK  104  A    between atoms: _245  and  _247
REMARK  105  A    between atoms: _247  and  _248
REMARK  106  A    between atoms: _247  and  _250
REMARK  107  A    between atoms: _250  and  _251
REMARK  108  A    between atoms: _253  and  _255
REMARK  109  A    between atoms: _255  and  _256
REMARK  110  A    between atoms: _255  and  _258
REMARK  111  A    between atoms: _258  and  _259
REMARK  112  A    between atoms: _262  and  _264
REMARK  113  A    between atoms: _264  and  _265
REMARK  114  A    between atoms: _264  and  _267
REMARK  115  A    between atoms: _267  and  _268
REMARK  116  A    between atoms: _268  and  _269
REMARK  117  A    between atoms: _269  and  _270
REMARK  118  A    between atoms: _279  and  _281
REMARK  119  A    between atoms: _281  and  _282
REMARK  120  A    between atoms: _281  and  _284
REMARK  121  A    between atoms: _284  and  _285
REMARK  122  A    between atoms: _288  and  _290
REMARK  123  A    between atoms: _290  and  _291
REMARK  124  A    between atoms: _290  and  _293
REMARK  125  A    between atoms: _293  and  _294
REMARK  126  A    between atoms: _297  and  _298
REMARK  127  A    between atoms: _303  and  _305
REMARK  128  A    between atoms: _305  and  _306
REMARK  129  A    between atoms: _308  and  _310
REMARK  130  A    between atoms: _310  and  _311
REMARK  131  A    between atoms: _310  and  _313
REMARK  132  A    between atoms: _316  and  _318
REMARK  133  A    between atoms: _318  and  _319
REMARK  134  A    between atoms: _321  and  _323
REMARK  135  A    between atoms: _323  and  _324
REMARK  136  A    between atoms: _327  and  _329
REMARK  137  A    between atoms: _329  and  _330
REMARK  138  A    between atoms: _329  and  _332
REMARK  139  A    between atoms: _332  and  _333
REMARK  140  A    between atoms: _333  and  _334
REMARK  141  A    between atoms: _339  and  _341
REMARK  142  A    between atoms: _341  and  _342
REMARK  143  A    between atoms: _344  and  _346
REMARK  144  A    between atoms: _346  and  _347
REMARK  145  A    between atoms: _349  and  _351
REMARK  146  A    between atoms: _351  and  _352
REMARK  147  A    between atoms: _351  and  _354
REMARK  148  A    between atoms: _354  and  _355
REMARK  149  A    between atoms: _358  and  _360
REMARK  150  A    between atoms: _360  and  _361
REMARK  151  A    between atoms: _360  and  _363
REMARK  152  A    between atoms: _366  and  _368
REMARK  153  A    between atoms: _368  and  _369
REMARK  154  A    between atoms: _371  and  _373
REMARK  155  A    between atoms: _373  and  _374
REMARK  156  A    between atoms: _373  and  _376
REMARK  157  A    between atoms: _376  and  _377
REMARK  158  A    between atoms: _377  and  _378
REMARK  159  A    between atoms: _378  and  _379
REMARK  160  A    between atoms: _388  and  _390
REMARK  161  A    between atoms: _390  and  _391
REMARK  162  A    between atoms: _390  and  _393
REMARK  163  A    between atoms: _393  and  _394
REMARK  164  A    between atoms: _396  and  _398
REMARK  165  A    between atoms: _398  and  _399
REMARK  166  A    between atoms: _398  and  _401
REMARK  167  A    between atoms: _401  and  _402
REMARK  168  A    between atoms: _405  and  _407
REMARK  169  A    between atoms: _407  and  _408
REMARK  170  A    between atoms: _407  and  _410
REMARK  171  A    between atoms: _410  and  _411
REMARK  172  A    between atoms: _416  and  _417
REMARK  173  A    between atoms: _419  and  _421
REMARK  174  A    between atoms: _421  and  _422
REMARK  175  A    between atoms: _421  and  _424
REMARK  176  A    between atoms: _424  and  _425
REMARK  177  A    between atoms: _428  and  _430
REMARK  178  A    between atoms: _430  and  _431
REMARK  179  A    between atoms: _434  and  _436
REMARK  180  A    between atoms: _436  and  _437
REMARK  181  A    between atoms: _436  and  _439
REMARK  182  A    between atoms: _439  and  _440
REMARK  183  A    between atoms: _443  and  _445
REMARK  184  A    between atoms: _445  and  _446
REMARK  185  A    between atoms: _445  and  _448
REMARK  186  A    between atoms: _448  and  _449
REMARK  187  A    between atoms: _453  and  _454
REMARK  188  A    between atoms: _459  and  _461
REMARK  189  A    between atoms: _461  and  _462
REMARK  190  A    between atoms: _461  and  _464
REMARK  191  A    between atoms: _464  and  _465
REMARK  192  A    between atoms: _465  and  _466
REMARK  193  A    between atoms: _469  and  _471
REMARK  194  A    between atoms: _471  and  _472
REMARK  195  A    between atoms: _471  and  _474
REMARK  196  A    between atoms: _474  and  _475
REMARK  197  A    between atoms: _478  and  _480
REMARK  198  A    between atoms: _480  and  _481
REMARK  199  A    between atoms: _480  and  _483
REMARK  200  A    between atoms: _483  and  _484
REMARK  201  A    between atoms: _489  and  _491
REMARK  202  A    between atoms: _491  and  _492
REMARK  203  A    between atoms: _491  and  _494
REMARK  204  A    between atoms: _494  and  _495
REMARK  205  A    between atoms: _495  and  _496
REMARK  206  A    between atoms: _496  and  _497
REMARK  207  A    between atoms: _497  and  _498
REMARK  208  A    between atoms: _502  and  _504
REMARK  209  A    between atoms: _504  and  _505
REMARK  210  A    between atoms: _504  and  _507
REMARK  211  A    between atoms: _507  and  _508
REMARK                            x       y       z     vdW  Elec       q    Type
REMARK                         _______ _______ _______ _____ _____    ______ ____
ROOT
ATOM      1  O   HOH     1      32.375 -21.240  13.856  0.00  0.00    +0.000 OA
ENDROOT
TORSDOF 0
REMARK  Name = ../refined-set-2016/2zz1/2zz1_pocket.pdb
REMARK  211 active torsions:
REMARK  status: ('A' for Active; 'I' for Inactive)
REMARK    1  A    between atoms: _1  and  _3
REMARK    2  A    between atoms: _3  and  _4
REMARK    3  A    between atoms: _3  and  _6
REMARK    4  A    between atoms: _6  and  _7
REMARK    5  A    between atoms: _10  and  _12
REMARK    6  A    between atoms: _12  and  _13
REMARK    7  A    between atoms: _12  and  _15
REMARK    8  A    between atoms: _15  and  _16
REMARK    9  A    between atoms: _19  and  _21
REMARK   10  A    between atoms: _21  and  _22
REMARK   11  A    between atoms: _25  and  _27
REMARK   12  A    between atoms: _27  and  _28
REMARK   13  A    between atoms: _27  and  _30
REMARK   14  A    between atoms: _30  and  _31
REMARK   15  A    between atoms: _31  and  _32
REMARK   16  A    between atoms: _34  and  _36
REMARK   17  A    between atoms: _36  and  _37
REMARK   18  A    between atoms: _36  and  _39
REMARK   19  A    between atoms: _39  and  _40
REMARK   20  A    between atoms: _43  and  _45
REMARK   21  A    between atoms: _45  and  _46
REMARK   22  A    between atoms: _45  and  _48
REMARK   23  A    between atoms: _48  and  _49
REMARK   24  A    between atoms: _49  and  _50
REMARK   25  A    between atoms: _50  and  _51
REMARK   26  A    between atoms: _51  and  _52
REMARK   27  A    between atoms: _56  and  _58
REMARK   28  A    between atoms: _58  and  _59
REMARK   29  A    between atoms: _58  and  _61
REMARK   30  A    between atoms: _61  and  _62
REMARK   31  A    between atoms: _65  and  _67
REMARK   32  A    between atoms: _67  and  _68
REMARK   33  A    between atoms: _70  and  _72
REMARK   34  A    between atoms: _72  and  _73
REMARK   35  A    between atoms: _72  and  _75
REMARK   36  A    between atoms: _75  and  _76
REMARK   37  A    between atoms: _81  and  _82
REMARK   38  A    between atoms: _85  and  _86
REMARK   39  A    between atoms: _91  and  _93
REMARK   40  A    between atoms: _93  and  _94
REMARK   41  A    between atoms: _93  and  _96
REMARK   42  A    between atoms: _96  and  _97
REMARK   43  A    between atoms: _100  and  _102
REMARK   44  A    between atoms: _102  and  _103
REMARK   45  A    between atoms: _102  and  _105
REMARK   46  A    between atoms: _105  and  _106
REMARK   47  A    between atoms: _109  and  _111
REMARK   48  A    between atoms: _111  and  _112
REMARK   49  A    between atoms: _111  and  _114
REMARK   50  A    between atoms: _114  and  _115
REMARK   51  A    between atoms: _121  and  _123
REMARK   52  A    between atoms: _123  and  _124
REMARK   53  A    between atoms: _123  and  _126
REMARK   54  A    between atoms: _126  and  _127
REMARK   55  A    between atoms: _127  and  _128
REMARK   56  A    between atoms: _128  and  _129
REMARK   57  A    between atoms: _129  and  _130
REMARK   58  A    between atoms: _134  and  _136
REMARK   59  A    between atoms: _136  and  _137
REMARK   60  A    between atoms: _136  and  _139
REMARK   61  A    between atoms: _139  and  _140
REMARK   62  A    between atoms: _143  and  _145
REMARK   63  A    between atoms: _145  and  _146
REMARK   64  A    between atoms: _145  and  _148
REMARK   65  A    between atoms: _148  and  _149
REMARK   66  A    between atoms: _154  and  _156
REMARK   67  A    between atoms: _156  and  _157
REMARK   68  A    between atoms: _156  and  _159
REMARK   69  A    between atoms: _159  and  _160
REMARK   70  A    between atoms: _163  and  _165
REMARK   71  A    between atoms: _165  and  _166
REMARK   72  A    between atoms: _165  and  _168
REMARK   73  A    between atoms: _168  and  _169
REMARK   74  A    between atoms: _172  and  _174
REMARK   75  A    between atoms: _174  and  _175
REMARK   76  A    between atoms: _174  and  _177
REMARK   77  A    between atoms: _177  and  _178
REMARK   78  A    between atoms: _178  and  _179
REMARK   79  A    between atoms: _182  and  _184
REMARK   80  A    between atoms: _184  and  _185
REMARK   81  A    between atoms: _184  and  _187
REMARK   82  A    between atoms: _187  and  _188
REMARK   83  A    between atoms: _188  and  _189
REMARK   84  A    between atoms: _191  and  _193
REMARK   85  A    between atoms: _193  and  _194
REMARK   86  A    between atoms: _193  and  _196
REMARK   87  A    between atoms: _196  and  _197
REMARK   88  A    between atoms: _199  and  _201
REMARK   89  A    between atoms: _201  and  _202
REMARK   90  A    between atoms: _201  and  _204
REMARK   91  A    between atoms: _204  and  _205
REMARK   92  A    between atoms: _210  and  _212
REMARK   93  A    between atoms: _212  and  _213
REMARK   94  A    between atoms: _216  and  _218
REMARK   95  A    between atoms: _218  and  _219
REMARK   96  A    between atoms: _218  and  _221
REMARK   97  A    between atoms: _221  and  _222
REMARK   98  A    between atoms: _225  and  _227
REMARK   99  A    between atoms: _227  and  _228
REMARK  100  A    between atoms: _227  and  _230
REMARK  101  A    between atoms: _233  and  _235
REMARK  102  A    between atoms: _235  and  _236
REMARK  103  A    between atoms: _239  and  _240
REMARK  104  A    between atoms: _245  and  _247
REMARK  105  A    between atoms: _247  and  _248
REMARK  106  A    between atoms: _247  and  _250
REMARK  107  A    between atoms: _250  and  _251
REMARK  108  A    between atoms: _253  and  _255
REMARK  109  A    between atoms: _255  and  _256
REMARK  110  A    between atoms: _255  and  _258
REMARK  111  A    between atoms: _258  and  _259
REMARK  112  A    between atoms: _262  and  _264
REMARK  113  A    between atoms: _264  and  _265
REMARK  114  A    between atoms: _264  and  _267
REMARK  115  A    between atoms: _267  and  _268
REMARK  116  A    between atoms: _268  and  _269
REMARK  117  A    between atoms: _269  and  _270
REMARK  118  A    between atoms: _279  and  _281
REMARK  119  A    between atoms: _281  and  _282
REMARK  120  A    between atoms: _281  and  _284
REMARK  121  A    between atoms: _284  and  _285
REMARK  122  A    between atoms: _288  and  _290
REMARK  123  A    between atoms: _290  and  _291
REMARK  124  A    between atoms: _290  and  _293
REMARK  125  A    between atoms: _293  and  _294
REMARK  126  A    between atoms: _297  and  _298
REMARK  127  A    between atoms: _303  and  _305
REMARK  128  A    between atoms: _305  and  _306
REMARK  129  A    between atoms: _308  and  _310
REMARK  130  A    between atoms: _310  and  _311
REMARK  131  A    between atoms: _310  and  _313
REMARK  132  A    between atoms: _316  and  _318
REMARK  133  A    between atoms: _318  and  _319
REMARK  134  A    between atoms: _321  and  _323
REMARK  135  A    between atoms: _323  and  _324
REMARK  136  A    between atoms: _327  and  _329
REMARK  137  A    between atoms: _329  and  _330
REMARK  138  A    between atoms: _329  and  _332
REMARK  139  A    between atoms: _332  and  _333
REMARK  140  A    between atoms: _333  and  _334
REMARK  141  A    between atoms: _339  and  _341
REMARK  142  A    between atoms: _341  and  _342
REMARK  143  A    between atoms: _344  and  _346
REMARK  144  A    between atoms: _346  and  _347
REMARK  145  A    between atoms: _349  and  _351
REMARK  146  A    between atoms: _351  and  _352
REMARK  147  A    between atoms: _351  and  _354
REMARK  148  A    between atoms: _354  and  _355
REMARK  149  A    between atoms: _358  and  _360
REMARK  150  A    between atoms: _360  and  _361
REMARK  151  A    between atoms: _360  and  _363
REMARK  152  A    between atoms: _366  and  _368
REMARK  153  A    between atoms: _368  and  _369
REMARK  154  A    between atoms: _371  and  _373
REMARK  155  A    between atoms: _373  and  _374
REMARK  156  A    between atoms: _373  and  _376
REMARK  157  A    between atoms: _376  and  _377
REMARK  158  A    between atoms: _377  and  _378
REMARK  159  A    between atoms: _378  and  _379
REMARK  160  A    between atoms: _388  and  _390
REMARK  161  A    between atoms: _390  and  _391
REMARK  162  A    between atoms: _390  and  _393
REMARK  163  A    between atoms: _393  and  _394
REMARK  164  A    between atoms: _396  and  _398
REMARK  165  A    between atoms: _398  and  _399
REMARK  166  A    between atoms: _398  and  _401
REMARK  167  A    between atoms: _401  and  _402
REMARK  168  A    between atoms: _405  and  _407
REMARK  169  A    between atoms: _407  and  _408
REMARK  170  A    between atoms: _407  and  _410
REMARK  171  A    between atoms: _410  and  _411
REMARK  172  A    between atoms: _416  and  _417
REMARK  173  A    between atoms: _419  and  _421
REMARK  174  A    between atoms: _421  and  _422
REMARK  175  A    between atoms: _421  and  _424
REMARK  176  A    between atoms: _424  and  _425
REMARK  177  A    between atoms: _428  and  _430
REMARK  178  A    between atoms: _430  and  _431
REMARK  179  A    between atoms: _434  and  _436
REMARK  180  A    between atoms: _436  and  _437
REMARK  181  A    between atoms: _436  and  _439
REMARK  182  A    between atoms: _439  and  _440
REMARK  183  A    between atoms: _443  and  _445
REMARK  184  A    between atoms: _445  and  _446
REMARK  185  A    between atoms: _445  and  _448
REMARK  186  A    between atoms: _448  and  _449
REMARK  187  A    between atoms: _453  and  _454
REMARK  188  A    between atoms: _459  and  _461
REMARK  189  A    between atoms: _461  and  _462
REMARK  190  A    between atoms: _461  and  _464
REMARK  191  A    between atoms: _464  and  _465
REMARK  192  A    between atoms: _465  and  _466
REMARK  193  A    between atoms: _469  and  _471
REMARK  194  A    between atoms: _471  and  _472
REMARK  195  A    between atoms: _471  and  _474
REMARK  196  A    between atoms: _474  and  _475
REMARK  197  A    between atoms: _478  and  _480
REMARK  198  A    between atoms: _480  and  _481
REMARK  199  A    between atoms: _480  and  _483
REMARK  200  A    between atoms: _483  and  _484
REMARK  201  A    between atoms: _489  and  _491
REMARK  202  A    between atoms: _491  and  _492
REMARK  203  A    between atoms: _491  and  _494
REMARK  204  A    between atoms: _494  and  _495
REMARK  205  A    between atoms: _495  and  _496
REMARK  206  A    between atoms: _496  and  _497
REMARK  207  A    between atoms: _497  and  _498
REMARK  208  A    between atoms: _502  and  _504
REMARK  209  A    between atoms: _504  and  _505
REMARK  210  A    between atoms: _504  and  _507
REMARK  211  A    between atoms: _507  and  _508
REMARK                            x       y       z     vdW  Elec       q    Type
REMARK                         _______ _______ _______ _____ _____    ______ ____
ROOT
ATOM      1  O   HOH     1      26.446 -18.990   8.025  0.00  0.00    +0.000 OA
ENDROOT
TORSDOF 0
REMARK  Name = ../refined-set-2016/2zz1/2zz1_pocket.pdb
REMARK  211 active torsions:
REMARK  status: ('A' for Active; 'I' for Inactive)
REMARK    1  A    between atoms: _1  and  _3
REMARK    2  A    between atoms: _3  and  _4
REMARK    3  A    between atoms: _3  and  _6
REMARK    4  A    between atoms: _6  and  _7
REMARK    5  A    between atoms: _10  and  _12
REMARK    6  A    between atoms: _12  and  _13
REMARK    7  A    between atoms: _12  and  _15
REMARK    8  A    between atoms: _15  and  _16
REMARK    9  A    between atoms: _19  and  _21
REMARK   10  A    between atoms: _21  and  _22
REMARK   11  A    between atoms: _25  and  _27
REMARK   12  A    between atoms: _27  and  _28
REMARK   13  A    between atoms: _27  and  _30
REMARK   14  A    between atoms: _30  and  _31
REMARK   15  A    between atoms: _31  and  _32
REMARK   16  A    between atoms: _34  and  _36
REMARK   17  A    between atoms: _36  and  _37
REMARK   18  A    between atoms: _36  and  _39
REMARK   19  A    between atoms: _39  and  _40
REMARK   20  A    between atoms: _43  and  _45
REMARK   21  A    between atoms: _45  and  _46
REMARK   22  A    between atoms: _45  and  _48
REMARK   23  A    between atoms: _48  and  _49
REMARK   24  A    between atoms: _49  and  _50
REMARK   25  A    between atoms: _50  and  _51
REMARK   26  A    between atoms: _51  and  _52
REMARK   27  A    between atoms: _56  and  _58
REMARK   28  A    between atoms: _58  and  _59
REMARK   29  A    between atoms: _58  and  _61
REMARK   30  A    between atoms: _61  and  _62
REMARK   31  A    between atoms: _65  and  _67
REMARK   32  A    between atoms: _67  and  _68
REMARK   33  A    between atoms: _70  and  _72
REMARK   34  A    between atoms: _72  and  _73
REMARK   35  A    between atoms: _72  and  _75
REMARK   36  A    between atoms: _75  and  _76
REMARK   37  A    between atoms: _81  and  _82
REMARK   38  A    between atoms: _85  and  _86
REMARK   39  A    between atoms: _91  and  _93
REMARK   40  A    between atoms: _93  and  _94
REMARK   41  A    between atoms: _93  and  _96
REMARK   42  A    between atoms: _96  and  _97
REMARK   43  A    between atoms: _100  and  _102
REMARK   44  A    between atoms: _102  and  _103
REMARK   45  A    between atoms: _102  and  _105
REMARK   46  A    between atoms: _105  and  _106
REMARK   47  A    between atoms: _109  and  _111
REMARK   48  A    between atoms: _111  and  _112
REMARK   49  A    between atoms: _111  and  _114
REMARK   50  A    between atoms: _114  and  _115
REMARK   51  A    between atoms: _121  and  _123
REMARK   52  A    between atoms: _123  and  _124
REMARK   53  A    between atoms: _123  and  _126
REMARK   54  A    between atoms: _126  and  _127
REMARK   55  A    between atoms: _127  and  _128
REMARK   56  A    between atoms: _128  and  _129
REMARK   57  A    between atoms: _129  and  _130
REMARK   58  A    between atoms: _134  and  _136
REMARK   59  A    between atoms: _136  and  _137
REMARK   60  A    between atoms: _136  and  _139
REMARK   61  A    between atoms: _139  and  _140
REMARK   62  A    between atoms: _143  and  _145
REMARK   63  A    between atoms: _145  and  _146
REMARK   64  A    between atoms: _145  and  _148
REMARK   65  A    between atoms: _148  and  _149
REMARK   66  A    between atoms: _154  and  _156
REMARK   67  A    between atoms: _156  and  _157
REMARK   68  A    between atoms: _156  and  _159
REMARK   69  A    between atoms: _159  and  _160
REMARK   70  A    between atoms: _163  and  _165
REMARK   71  A    between atoms: _165  and  _166
REMARK   72  A    between atoms: _165  and  _168
REMARK   73  A    between atoms: _168  and  _169
REMARK   74  A    between atoms: _172  and  _174
REMARK   75  A    between atoms: _174  and  _175
REMARK   76  A    between atoms: _174  and  _177
REMARK   77  A    between atoms: _177  and  _178
REMARK   78  A    between atoms: _178  and  _179
REMARK   79  A    between atoms: _182  and  _184
REMARK   80  A    between atoms: _184  and  _185
REMARK   81  A    between atoms: _184  and  _187
REMARK   82  A    between atoms: _187  and  _188
REMARK   83  A    between atoms: _188  and  _189
REMARK   84  A    between atoms: _191  and  _193
REMARK   85  A    between atoms: _193  and  _194
REMARK   86  A    between atoms: _193  and  _196
REMARK   87  A    between atoms: _196  and  _197
REMARK   88  A    between atoms: _199  and  _201
REMARK   89  A    between atoms: _201  and  _202
REMARK   90  A    between atoms: _201  and  _204
REMARK   91  A    between atoms: _204  and  _205
REMARK   92  A    between atoms: _210  and  _212
REMARK   93  A    between atoms: _212  and  _213
REMARK   94  A    between atoms: _216  and  _218
REMARK   95  A    between atoms: _218  and  _219
REMARK   96  A    between atoms: _218  and  _221
REMARK   97  A    between atoms: _221  and  _222
REMARK   98  A    between atoms: _225  and  _227
REMARK   99  A    between atoms: _227  and  _228
REMARK  100  A    between atoms: _227  and  _230
REMARK  101  A    between atoms: _233  and  _235
REMARK  102  A    between atoms: _235  and  _236
REMARK  103  A    between atoms: _239  and  _240
REMARK  104  A    between atoms: _245  and  _247
REMARK  105  A    between atoms: _247  and  _248
REMARK  106  A    between atoms: _247  and  _250
REMARK  107  A    between atoms: _250  and  _251
REMARK  108  A    between atoms: _253  and  _255
REMARK  109  A    between atoms: _255  and  _256
REMARK  110  A    between atoms: _255  and  _258
REMARK  111  A    between atoms: _258  and  _259
REMARK  112  A    between atoms: _262  and  _264
REMARK  113  A    between atoms: _264  and  _265
REMARK  114  A    between atoms: _264  and  _267
REMARK  115  A    between atoms: _267  and  _268
REMARK  116  A    between atoms: _268  and  _269
REMARK  117  A    between atoms: _269  and  _270
REMARK  118  A    between atoms: _279  and  _281
REMARK  119  A    between atoms: _281  and  _282
REMARK  120  A    between atoms: _281  and  _284
REMARK  121  A    between atoms: _284  and  _285
REMARK  122  A    between atoms: _288  and  _290
REMARK  123  A    between atoms: _290  and  _291
REMARK  124  A    between atoms: _290  and  _293
REMARK  125  A    between atoms: _293  and  _294
REMARK  126  A    between atoms: _297  and  _298
REMARK  127  A    between atoms: _303  and  _305
REMARK  128  A    between atoms: _305  and  _306
REMARK  129  A    between atoms: _308  and  _310
REMARK  130  A    between atoms: _310  and  _311
REMARK  131  A    between atoms: _310  and  _313
REMARK  132  A    between atoms: _316  and  _318
REMARK  133  A    between atoms: _318  and  _319
REMARK  134  A    between atoms: _321  and  _323
REMARK  135  A    between atoms: _323  and  _324
REMARK  136  A    between atoms: _327  and  _329
REMARK  137  A    between atoms: _329  and  _330
REMARK  138  A    between atoms: _329  and  _332
REMARK  139  A    between atoms: _332  and  _333
REMARK  140  A    between atoms: _333  and  _334
REMARK  141  A    between atoms: _339  and  _341
REMARK  142  A    between atoms: _341  and  _342
REMARK  143  A    between atoms: _344  and  _346
REMARK  144  A    between atoms: _346  and  _347
REMARK  145  A    between atoms: _349  and  _351
REMARK  146  A    between atoms: _351  and  _352
REMARK  147  A    between atoms: _351  and  _354
REMARK  148  A    between atoms: _354  and  _355
REMARK  149  A    between atoms: _358  and  _360
REMARK  150  A    between atoms: _360  and  _361
REMARK  151  A    between atoms: _360  and  _363
REMARK  152  A    between atoms: _366  and  _368
REMARK  153  A    between atoms: _368  and  _369
REMARK  154  A    between atoms: _371  and  _373
REMARK  155  A    between atoms: _373  and  _374
REMARK  156  A    between atoms: _373  and  _376
REMARK  157  A    between atoms: _376  and  _377
REMARK  158  A    between atoms: _377  and  _378
REMARK  159  A    between atoms: _378  and  _379
REMARK  160  A    between atoms: _388  and  _390
REMARK  161  A    between atoms: _390  and  _391
REMARK  162  A    between atoms: _390  and  _393
REMARK  163  A    between atoms: _393  and  _394
REMARK  164  A    between atoms: _396  and  _398
REMARK  165  A    between atoms: _398  and  _399
REMARK  166  A    between atoms: _398  and  _401
REMARK  167  A    between atoms: _401  and  _402
REMARK  168  A    between atoms: _405  and  _407
REMARK  169  A    between atoms: _407  and  _408
REMARK  170  A    between atoms: _407  and  _410
REMARK  171  A    between atoms: _410  and  _411
REMARK  172  A    between atoms: _416  and  _417
REMARK  173  A    between atoms: _419  and  _421
REMARK  174  A    between atoms: _421  and  _422
REMARK  175  A    between atoms: _421  and  _424
REMARK  176  A    between atoms: _424  and  _425
REMARK  177  A    between atoms: _428  and  _430
REMARK  178  A    between atoms: _430  and  _431
REMARK  179  A    between atoms: _434  and  _436
REMARK  180  A    between atoms: _436  and  _437
REMARK  181  A    between atoms: _436  and  _439
REMARK  182  A    between atoms: _439  and  _440
REMARK  183  A    between atoms: _443  and  _445
REMARK  184  A    between atoms: _445  and  _446
REMARK  185  A    between atoms: _445  and  _448
REMARK  186  A    between atoms: _448  and  _449
REMARK  187  A    between atoms: _453  and  _454
REMARK  188  A    between atoms: _459  and  _461
REMARK  189  A    between atoms: _461  and  _462
REMARK  190  A    between atoms: _461  and  _464
REMARK  191  A    between atoms: _464  and  _465
REMARK  192  A    between atoms: _465  and  _466
REMARK  193  A    between atoms: _469  and  _471
REMARK  194  A    between atoms: _471  and  _472
REMARK  195  A    between atoms: _471  and  _474
REMARK  196  A    between atoms: _474  and  _475
REMARK  197  A    between atoms: _478  and  _480
REMARK  198  A    between atoms: _480  and  _481
REMARK  199  A    between atoms: _480  and  _483
REMARK  200  A    between atoms: _483  and  _484
REMARK  201  A    between atoms: _489  and  _491
REMARK  202  A    between atoms: _491  and  _492
REMARK  203  A    between atoms: _491  and  _494
REMARK  204  A    between atoms: _494  and  _495
REMARK  205  A    between atoms: _495  and  _496
REMARK  206  A    between atoms: _496  and  _497
REMARK  207  A    between atoms: _497  and  _498
REMARK  208  A    between atoms: _502  and  _504
REMARK  209  A    between atoms: _504  and  _505
REMARK  210  A    between atoms: _504  and  _507
REMARK  211  A    between atoms: _507  and  _508
REMARK                            x       y       z     vdW  Elec       q    Type
REMARK                         _______ _______ _______ _____ _____    ______ ____
ROOT
ATOM      1  O   HOH     1      21.647 -14.819  10.900  0.00  0.00    +0.000 OA
ENDROOT
TORSDOF 0
REMARK  Name = ../refined-set-2016/2zz1/2zz1_pocket.pdb
REMARK  211 active torsions:
REMARK  status: ('A' for Active; 'I' for Inactive)
REMARK    1  A    between atoms: _1  and  _3
REMARK    2  A    between atoms: _3  and  _4
REMARK    3  A    between atoms: _3  and  _6
REMARK    4  A    between atoms: _6  and  _7
REMARK    5  A    between atoms: _10  and  _12
REMARK    6  A    between atoms: _12  and  _13
REMARK    7  A    between atoms: _12  and  _15
REMARK    8  A    between atoms: _15  and  _16
REMARK    9  A    between atoms: _19  and  _21
REMARK   10  A    between atoms: _21  and  _22
REMARK   11  A    between atoms: _25  and  _27
REMARK   12  A    between atoms: _27  and  _28
REMARK   13  A    between atoms: _27  and  _30
REMARK   14  A    between atoms: _30  and  _31
REMARK   15  A    between atoms: _31  and  _32
REMARK   16  A    between atoms: _34  and  _36
REMARK   17  A    between atoms: _36  and  _37
REMARK   18  A    between atoms: _36  and  _39
REMARK   19  A    between atoms: _39  and  _40
REMARK   20  A    between atoms: _43  and  _45
REMARK   21  A    between atoms: _45  and  _46
REMARK   22  A    between atoms: _45  and  _48
REMARK   23  A    between atoms: _48  and  _49
REMARK   24  A    between atoms: _49  and  _50
REMARK   25  A    between atoms: _50  and  _51
REMARK   26  A    between atoms: _51  and  _52
REMARK   27  A    between atoms: _56  and  _58
REMARK   28  A    between atoms: _58  and  _59
REMARK   29  A    between atoms: _58  and  _61
REMARK   30  A    between atoms: _61  and  _62
REMARK   31  A    between atoms: _65  and  _67
REMARK   32  A    between atoms: _67  and  _68
REMARK   33  A    between atoms: _70  and  _72
REMARK   34  A    between atoms: _72  and  _73
REMARK   35  A    between atoms: _72  and  _75
REMARK   36  A    between atoms: _75  and  _76
REMARK   37  A    between atoms: _81  and  _82
REMARK   38  A    between atoms: _85  and  _86
REMARK   39  A    between atoms: _91  and  _93
REMARK   40  A    between atoms: _93  and  _94
REMARK   41  A    between atoms: _93  and  _96
REMARK   42  A    between atoms: _96  and  _97
REMARK   43  A    between atoms: _100  and  _102
REMARK   44  A    between atoms: _102  and  _103
REMARK   45  A    between atoms: _102  and  _105
REMARK   46  A    between atoms: _105  and  _106
REMARK   47  A    between atoms: _109  and  _111
REMARK   48  A    between atoms: _111  and  _112
REMARK   49  A    between atoms: _111  and  _114
REMARK   50  A    between atoms: _114  and  _115
REMARK   51  A    between atoms: _121  and  _123
REMARK   52  A    between atoms: _123  and  _124
REMARK   53  A    between atoms: _123  and  _126
REMARK   54  A    between atoms: _126  and  _127
REMARK   55  A    between atoms: _127  and  _128
REMARK   56  A    between atoms: _128  and  _129
REMARK   57  A    between atoms: _129  and  _130
REMARK   58  A    between atoms: _134  and  _136
REMARK   59  A    between atoms: _136  and  _137
REMARK   60  A    between atoms: _136  and  _139
REMARK   61  A    between atoms: _139  and  _140
REMARK   62  A    between atoms: _143  and  _145
REMARK   63  A    between atoms: _145  and  _146
REMARK   64  A    between atoms: _145  and  _148
REMARK   65  A    between atoms: _148  and  _149
REMARK   66  A    between atoms: _154  and  _156
REMARK   67  A    between atoms: _156  and  _157
REMARK   68  A    between atoms: _156  and  _159
REMARK   69  A    between atoms: _159  and  _160
REMARK   70  A    between atoms: _163  and  _165
REMARK   71  A    between atoms: _165  and  _166
REMARK   72  A    between atoms: _165  and  _168
REMARK   73  A    between atoms: _168  and  _169
REMARK   74  A    between atoms: _172  and  _174
REMARK   75  A    between atoms: _174  and  _175
REMARK   76  A    between atoms: _174  and  _177
REMARK   77  A    between atoms: _177  and  _178
REMARK   78  A    between atoms: _178  and  _179
REMARK   79  A    between atoms: _182  and  _184
REMARK   80  A    between atoms: _184  and  _185
REMARK   81  A    between atoms: _184  and  _187
REMARK   82  A    between atoms: _187  and  _188
REMARK   83  A    between atoms: _188  and  _189
REMARK   84  A    between atoms: _191  and  _193
REMARK   85  A    between atoms: _193  and  _194
REMARK   86  A    between atoms: _193  and  _196
REMARK   87  A    between atoms: _196  and  _197
REMARK   88  A    between atoms: _199  and  _201
REMARK   89  A    between atoms: _201  and  _202
REMARK   90  A    between atoms: _201  and  _204
REMARK   91  A    between atoms: _204  and  _205
REMARK   92  A    between atoms: _210  and  _212
REMARK   93  A    between atoms: _212  and  _213
REMARK   94  A    between atoms: _216  and  _218
REMARK   95  A    between atoms: _218  and  _219
REMARK   96  A    between atoms: _218  and  _221
REMARK   97  A    between atoms: _221  and  _222
REMARK   98  A    between atoms: _225  and  _227
REMARK   99  A    between atoms: _227  and  _228
REMARK  100  A    between atoms: _227  and  _230
REMARK  101  A    between atoms: _233  and  _235
REMARK  102  A    between atoms: _235  and  _236
REMARK  103  A    between atoms: _239  and  _240
REMARK  104  A    between atoms: _245  and  _247
REMARK  105  A    between atoms: _247  and  _248
REMARK  106  A    between atoms: _247  and  _250
REMARK  107  A    between atoms: _250  and  _251
REMARK  108  A    between atoms: _253  and  _255
REMARK  109  A    between atoms: _255  and  _256
REMARK  110  A    between atoms: _255  and  _258
REMARK  111  A    between atoms: _258  and  _259
REMARK  112  A    between atoms: _262  and  _264
REMARK  113  A    between atoms: _264  and  _265
REMARK  114  A    between atoms: _264  and  _267
REMARK  115  A    between atoms: _267  and  _268
REMARK  116  A    between atoms: _268  and  _269
REMARK  117  A    between atoms: _269  and  _270
REMARK  118  A    between atoms: _279  and  _281
REMARK  119  A    between atoms: _281  and  _282
REMARK  120  A    between atoms: _281  and  _284
REMARK  121  A    between atoms: _284  and  _285
REMARK  122  A    between atoms: _288  and  _290
REMARK  123  A    between atoms: _290  and  _291
REMARK  124  A    between atoms: _290  and  _293
REMARK  125  A    between atoms: _293  and  _294
REMARK  126  A    between atoms: _297  and  _298
REMARK  127  A    between atoms: _303  and  _305
REMARK  128  A    between atoms: _305  and  _306
REMARK  129  A    between atoms: _308  and  _310
REMARK  130  A    between atoms: _310  and  _311
REMARK  131  A    between atoms: _310  and  _313
REMARK  132  A    between atoms: _316  and  _318
REMARK  133  A    between atoms: _318  and  _319
REMARK  134  A    between atoms: _321  and  _323
REMARK  135  A    between atoms: _323  and  _324
REMARK  136  A    between atoms: _327  and  _329
REMARK  137  A    between atoms: _329  and  _330
REMARK  138  A    between atoms: _329  and  _332
REMARK  139  A    between atoms: _332  and  _333
REMARK  140  A    between atoms: _333  and  _334
REMARK  141  A    between atoms: _339  and  _341
REMARK  142  A    between atoms: _341  and  _342
REMARK  143  A    between atoms: _344  and  _346
REMARK  144  A    between atoms: _346  and  _347
REMARK  145  A    between atoms: _349  and  _351
REMARK  146  A    between atoms: _351  and  _352
REMARK  147  A    between atoms: _351  and  _354
REMARK  148  A    between atoms: _354  and  _355
REMARK  149  A    between atoms: _358  and  _360
REMARK  150  A    between atoms: _360  and  _361
REMARK  151  A    between atoms: _360  and  _363
REMARK  152  A    between atoms: _366  and  _368
REMARK  153  A    between atoms: _368  and  _369
REMARK  154  A    between atoms: _371  and  _373
REMARK  155  A    between atoms: _373  and  _374
REMARK  156  A    between atoms: _373  and  _376
REMARK  157  A    between atoms: _376  and  _377
REMARK  158  A    between atoms: _377  and  _378
REMARK  159  A    between atoms: _378  and  _379
REMARK  160  A    between atoms: _388  and  _390
REMARK  161  A    between atoms: _390  and  _391
REMARK  162  A    between atoms: _390  and  _393
REMARK  163  A    between atoms: _393  and  _394
REMARK  164  A    between atoms: _396  and  _398
REMARK  165  A    between atoms: _398  and  _399
REMARK  166  A    between atoms: _398  and  _401
REMARK  167  A    between atoms: _401  and  _402
REMARK  168  A    between atoms: _405  and  _407
REMARK  169  A    between atoms: _407  and  _408
REMARK  170  A    between atoms: _407  and  _410
REMARK  171  A    between atoms: _410  and  _411
REMARK  172  A    between atoms: _416  and  _417
REMARK  173  A    between atoms: _419  and  _421
REMARK  174  A    between atoms: _421  and  _422
REMARK  175  A    between atoms: _421  and  _424
REMARK  176  A    between atoms: _424  and  _425
REMARK  177  A    between atoms: _428  and  _430
REMARK  178  A    between atoms: _430  and  _431
REMARK  179  A    between atoms: _434  and  _436
REMARK  180  A    between atoms: _436  and  _437
REMARK  181  A    between atoms: _436  and  _439
REMARK  182  A    between atoms: _439  and  _440
REMARK  183  A    between atoms: _443  and  _445
REMARK  184  A    between atoms: _445  and  _446
REMARK  185  A    between atoms: _445  and  _448
REMARK  186  A    between atoms: _448  and  _449
REMARK  187  A    between atoms: _453  and  _454
REMARK  188  A    between atoms: _459  and  _461
REMARK  189  A    between atoms: _461  and  _462
REMARK  190  A    between atoms: _461  and  _464
REMARK  191  A    between atoms: _464  and  _465
REMARK  192  A    between atoms: _465  and  _466
REMARK  193  A    between atoms: _469  and  _471
REMARK  194  A    between atoms: _471  and  _472
REMARK  195  A    between atoms: _471  and  _474
REMARK  196  A    between atoms: _474  and  _475
REMARK  197  A    between atoms: _478  and  _480
REMARK  198  A    between atoms: _480  and  _481
REMARK  199  A    between atoms: _480  and  _483
REMARK  200  A    between atoms: _483  and  _484
REMARK  201  A    between atoms: _489  and  _491
REMARK  202  A    between atoms: _491  and  _492
REMARK  203  A    between atoms: _491  and  _494
REMARK  204  A    between atoms: _494  and  _495
REMARK  205  A    between atoms: _495  and  _496
REMARK  206  A    between atoms: _496  and  _497
REMARK  207  A    between atoms: _497  and  _498
REMARK  208  A    between atoms: _502  and  _504
REMARK  209  A    between atoms: _504  and  _505
REMARK  210  A    between atoms: _504  and  _507
REMARK  211  A    between atoms: _507  and  _508
REMARK                            x       y       z     vdW  Elec       q    Type
REMARK                         _______ _______ _______ _____ _____    ______ ____
ROOT
ATOM      1  O   HOH     1      19.809 -19.925  14.273  0.00  0.00    +0.000 OA
ENDROOT
TORSDOF 0
REMARK  Name = ../refined-set-2016/2zz1/2zz1_pocket.pdb
REMARK  211 active torsions:
REMARK  status: ('A' for Active; 'I' for Inactive)
REMARK    1  A    between atoms: _1  and  _3
REMARK    2  A    between atoms: _3  and  _4
REMARK    3  A    between atoms: _3  and  _6
REMARK    4  A    between atoms: _6  and  _7
REMARK    5  A    between atoms: _10  and  _12
REMARK    6  A    between atoms: _12  and  _13
REMARK    7  A    between atoms: _12  and  _15
REMARK    8  A    between atoms: _15  and  _16
REMARK    9  A    between atoms: _19  and  _21
REMARK   10  A    between atoms: _21  and  _22
REMARK   11  A    between atoms: _25  and  _27
REMARK   12  A    between atoms: _27  and  _28
REMARK   13  A    between atoms: _27  and  _30
REMARK   14  A    between atoms: _30  and  _31
REMARK   15  A    between atoms: _31  and  _32
REMARK   16  A    between atoms: _34  and  _36
REMARK   17  A    between atoms: _36  and  _37
REMARK   18  A    between atoms: _36  and  _39
REMARK   19  A    between atoms: _39  and  _40
REMARK   20  A    between atoms: _43  and  _45
REMARK   21  A    between atoms: _45  and  _46
REMARK   22  A    between atoms: _45  and  _48
REMARK   23  A    between atoms: _48  and  _49
REMARK   24  A    between atoms: _49  and  _50
REMARK   25  A    between atoms: _50  and  _51
REMARK   26  A    between atoms: _51  and  _52
REMARK   27  A    between atoms: _56  and  _58
REMARK   28  A    between atoms: _58  and  _59
REMARK   29  A    between atoms: _58  and  _61
REMARK   30  A    between atoms: _61  and  _62
REMARK   31  A    between atoms: _65  and  _67
REMARK   32  A    between atoms: _67  and  _68
REMARK   33  A    between atoms: _70  and  _72
REMARK   34  A    between atoms: _72  and  _73
REMARK   35  A    between atoms: _72  and  _75
REMARK   36  A    between atoms: _75  and  _76
REMARK   37  A    between atoms: _81  and  _82
REMARK   38  A    between atoms: _85  and  _86
REMARK   39  A    between atoms: _91  and  _93
REMARK   40  A    between atoms: _93  and  _94
REMARK   41  A    between atoms: _93  and  _96
REMARK   42  A    between atoms: _96  and  _97
REMARK   43  A    between atoms: _100  and  _102
REMARK   44  A    between atoms: _102  and  _103
REMARK   45  A    between atoms: _102  and  _105
REMARK   46  A    between atoms: _105  and  _106
REMARK   47  A    between atoms: _109  and  _111
REMARK   48  A    between atoms: _111  and  _112
REMARK   49  A    between atoms: _111  and  _114
REMARK   50  A    between atoms: _114  and  _115
REMARK   51  A    between atoms: _121  and  _123
REMARK   52  A    between atoms: _123  and  _124
REMARK   53  A    between atoms: _123  and  _126
REMARK   54  A    between atoms: _126  and  _127
REMARK   55  A    between atoms: _127  and  _128
REMARK   56  A    between atoms: _128  and  _129
REMARK   57  A    between atoms: _129  and  _130
REMARK   58  A    between atoms: _134  and  _136
REMARK   59  A    between atoms: _136  and  _137
REMARK   60  A    between atoms: _136  and  _139
REMARK   61  A    between atoms: _139  and  _140
REMARK   62  A    between atoms: _143  and  _145
REMARK   63  A    between atoms: _145  and  _146
REMARK   64  A    between atoms: _145  and  _148
REMARK   65  A    between atoms: _148  and  _149
REMARK   66  A    between atoms: _154  and  _156
REMARK   67  A    between atoms: _156  and  _157
REMARK   68  A    between atoms: _156  and  _159
REMARK   69  A    between atoms: _159  and  _160
REMARK   70  A    between atoms: _163  and  _165
REMARK   71  A    between atoms: _165  and  _166
REMARK   72  A    between atoms: _165  and  _168
REMARK   73  A    between atoms: _168  and  _169
REMARK   74  A    between atoms: _172  and  _174
REMARK   75  A    between atoms: _174  and  _175
REMARK   76  A    between atoms: _174  and  _177
REMARK   77  A    between atoms: _177  and  _178
REMARK   78  A    between atoms: _178  and  _179
REMARK   79  A    between atoms: _182  and  _184
REMARK   80  A    between atoms: _184  and  _185
REMARK   81  A    between atoms: _184  and  _187
REMARK   82  A    between atoms: _187  and  _188
REMARK   83  A    between atoms: _188  and  _189
REMARK   84  A    between atoms: _191  and  _193
REMARK   85  A    between atoms: _193  and  _194
REMARK   86  A    between atoms: _193  and  _196
REMARK   87  A    between atoms: _196  and  _197
REMARK   88  A    between atoms: _199  and  _201
REMARK   89  A    between atoms: _201  and  _202
REMARK   90  A    between atoms: _201  and  _204
REMARK   91  A    between atoms: _204  and  _205
REMARK   92  A    between atoms: _210  and  _212
REMARK   93  A    between atoms: _212  and  _213
REMARK   94  A    between atoms: _216  and  _218
REMARK   95  A    between atoms: _218  and  _219
REMARK   96  A    between atoms: _218  and  _221
REMARK   97  A    between atoms: _221  and  _222
REMARK   98  A    between atoms: _225  and  _227
REMARK   99  A    between atoms: _227  and  _228
REMARK  100  A    between atoms: _227  and  _230
REMARK  101  A    between atoms: _233  and  _235
REMARK  102  A    between atoms: _235  and  _236
REMARK  103  A    between atoms: _239  and  _240
REMARK  104  A    between atoms: _245  and  _247
REMARK  105  A    between atoms: _247  and  _248
REMARK  106  A    between atoms: _247  and  _250
REMARK  107  A    between atoms: _250  and  _251
REMARK  108  A    between atoms: _253  and  _255
REMARK  109  A    between atoms: _255  and  _256
REMARK  110  A    between atoms: _255  and  _258
REMARK  111  A    between atoms: _258  and  _259
REMARK  112  A    between atoms: _262  and  _264
REMARK  113  A    between atoms: _264  and  _265
REMARK  114  A    between atoms: _264  and  _267
REMARK  115  A    between atoms: _267  and  _268
REMARK  116  A    between atoms: _268  and  _269
REMARK  117  A    between atoms: _269  and  _270
REMARK  118  A    between atoms: _279  and  _281
REMARK  119  A    between atoms: _281  and  _282
REMARK  120  A    between atoms: _281  and  _284
REMARK  121  A    between atoms: _284  and  _285
REMARK  122  A    between atoms: _288  and  _290
REMARK  123  A    between atoms: _290  and  _291
REMARK  124  A    between atoms: _290  and  _293
REMARK  125  A    between atoms: _293  and  _294
REMARK  126  A    between atoms: _297  and  _298
REMARK  127  A    between atoms: _303  and  _305
REMARK  128  A    between atoms: _305  and  _306
REMARK  129  A    between atoms: _308  and  _310
REMARK  130  A    between atoms: _310  and  _311
REMARK  131  A    between atoms: _310  and  _313
REMARK  132  A    between atoms: _316  and  _318
REMARK  133  A    between atoms: _318  and  _319
REMARK  134  A    between atoms: _321  and  _323
REMARK  135  A    between atoms: _323  and  _324
REMARK  136  A    between atoms: _327  and  _329
REMARK  137  A    between atoms: _329  and  _330
REMARK  138  A    between atoms: _329  and  _332
REMARK  139  A    between atoms: _332  and  _333
REMARK  140  A    between atoms: _333  and  _334
REMARK  141  A    between atoms: _339  and  _341
REMARK  142  A    between atoms: _341  and  _342
REMARK  143  A    between atoms: _344  and  _346
REMARK  144  A    between atoms: _346  and  _347
REMARK  145  A    between atoms: _349  and  _351
REMARK  146  A    between atoms: _351  and  _352
REMARK  147  A    between atoms: _351  and  _354
REMARK  148  A    between atoms: _354  and  _355
REMARK  149  A    between atoms: _358  and  _360
REMARK  150  A    between atoms: _360  and  _361
REMARK  151  A    between atoms: _360  and  _363
REMARK  152  A    between atoms: _366  and  _368
REMARK  153  A    between atoms: _368  and  _369
REMARK  154  A    between atoms: _371  and  _373
REMARK  155  A    between atoms: _373  and  _374
REMARK  156  A    between atoms: _373  and  _376
REMARK  157  A    between atoms: _376  and  _377
REMARK  158  A    between atoms: _377  and  _378
REMARK  159  A    between atoms: _378  and  _379
REMARK  160  A    between atoms: _388  and  _390
REMARK  161  A    between atoms: _390  and  _391
REMARK  162  A    between atoms: _390  and  _393
REMARK  163  A    between atoms: _393  and  _394
REMARK  164  A    between atoms: _396  and  _398
REMARK  165  A    between atoms: _398  and  _399
REMARK  166  A    between atoms: _398  and  _401
REMARK  167  A    between atoms: _401  and  _402
REMARK  168  A    between atoms: _405  and  _407
REMARK  169  A    between atoms: _407  and  _408
REMARK  170  A    between atoms: _407  and  _410
REMARK  171  A    between atoms: _410  and  _411
REMARK  172  A    between atoms: _416  and  _417
REMARK  173  A    between atoms: _419  and  _421
REMARK  174  A    between atoms: _421  and  _422
REMARK  175  A    between atoms: _421  and  _424
REMARK  176  A    between atoms: _424  and  _425
REMARK  177  A    between atoms: _428  and  _430
REMARK  178  A    between atoms: _430  and  _431
REMARK  179  A    between atoms: _434  and  _436
REMARK  180  A    between atoms: _436  and  _437
REMARK  181  A    between atoms: _436  and  _439
REMARK  182  A    between atoms: _439  and  _440
REMARK  183  A    between atoms: _443  and  _445
REMARK  184  A    between atoms: _445  and  _446
REMARK  185  A    between atoms: _445  and  _448
REMARK  186  A    between atoms: _448  and  _449
REMARK  187  A    between atoms: _453  and  _454
REMARK  188  A    between atoms: _459  and  _461
REMARK  189  A    between atoms: _461  and  _462
REMARK  190  A    between atoms: _461  and  _464
REMARK  191  A    between atoms: _464  and  _465
REMARK  192  A    between atoms: _465  and  _466
REMARK  193  A    between atoms: _469  and  _471
REMARK  194  A    between atoms: _471  and  _472
REMARK  195  A    between atoms: _471  and  _474
REMARK  196  A    between atoms: _474  and  _475
REMARK  197  A    between atoms: _478  and  _480
REMARK  198  A    between atoms: _480  and  _481
REMARK  199  A    between atoms: _480  and  _483
REMARK  200  A    between atoms: _483  and  _484
REMARK  201  A    between atoms: _489  and  _491
REMARK  202  A    between atoms: _491  and  _492
REMARK  203  A    between atoms: _491  and  _494
REMARK  204  A    between atoms: _494  and  _495
REMARK  205  A    between atoms: _495  and  _496
REMARK  206  A    between atoms: _496  and  _497
REMARK  207  A    between atoms: _497  and  _498
REMARK  208  A    between atoms: _502  and  _504
REMARK  209  A    between atoms: _504  and  _505
REMARK  210  A    between atoms: _504  and  _507
REMARK  211  A    between atoms: _507  and  _508
REMARK                            x       y       z     vdW  Elec       q    Type
REMARK                         _______ _______ _______ _____ _____    ______ ____
ROOT
ATOM      1  O   HOH     1      21.681 -17.699  16.455  0.00  0.00    +0.000 OA
ENDROOT
TORSDOF 0
REMARK  Name = ../refined-set-2016/2zz1/2zz1_pocket.pdb
REMARK  211 active torsions:
REMARK  status: ('A' for Active; 'I' for Inactive)
REMARK    1  A    between atoms: _1  and  _3
REMARK    2  A    between atoms: _3  and  _4
REMARK    3  A    between atoms: _3  and  _6
REMARK    4  A    between atoms: _6  and  _7
REMARK    5  A    between atoms: _10  and  _12
REMARK    6  A    between atoms: _12  and  _13
REMARK    7  A    between atoms: _12  and  _15
REMARK    8  A    between atoms: _15  and  _16
REMARK    9  A    between atoms: _19  and  _21
REMARK   10  A    between atoms: _21  and  _22
REMARK   11  A    between atoms: _25  and  _27
REMARK   12  A    between atoms: _27  and  _28
REMARK   13  A    between atoms: _27  and  _30
REMARK   14  A    between atoms: _30  and  _31
REMARK   15  A    between atoms: _31  and  _32
REMARK   16  A    between atoms: _34  and  _36
REMARK   17  A    between atoms: _36  and  _37
REMARK   18  A    between atoms: _36  and  _39
REMARK   19  A    between atoms: _39  and  _40
REMARK   20  A    between atoms: _43  and  _45
REMARK   21  A    between atoms: _45  and  _46
REMARK   22  A    between atoms: _45  and  _48
REMARK   23  A    between atoms: _48  and  _49
REMARK   24  A    between atoms: _49  and  _50
REMARK   25  A    between atoms: _50  and  _51
REMARK   26  A    between atoms: _51  and  _52
REMARK   27  A    between atoms: _56  and  _58
REMARK   28  A    between atoms: _58  and  _59
REMARK   29  A    between atoms: _58  and  _61
REMARK   30  A    between atoms: _61  and  _62
REMARK   31  A    between atoms: _65  and  _67
REMARK   32  A    between atoms: _67  and  _68
REMARK   33  A    between atoms: _70  and  _72
REMARK   34  A    between atoms: _72  and  _73
REMARK   35  A    between atoms: _72  and  _75
REMARK   36  A    between atoms: _75  and  _76
REMARK   37  A    between atoms: _81  and  _82
REMARK   38  A    between atoms: _85  and  _86
REMARK   39  A    between atoms: _91  and  _93
REMARK   40  A    between atoms: _93  and  _94
REMARK   41  A    between atoms: _93  and  _96
REMARK   42  A    between atoms: _96  and  _97
REMARK   43  A    between atoms: _100  and  _102
REMARK   44  A    between atoms: _102  and  _103
REMARK   45  A    between atoms: _102  and  _105
REMARK   46  A    between atoms: _105  and  _106
REMARK   47  A    between atoms: _109  and  _111
REMARK   48  A    between atoms: _111  and  _112
REMARK   49  A    between atoms: _111  and  _114
REMARK   50  A    between atoms: _114  and  _115
REMARK   51  A    between atoms: _121  and  _123
REMARK   52  A    between atoms: _123  and  _124
REMARK   53  A    between atoms: _123  and  _126
REMARK   54  A    between atoms: _126  and  _127
REMARK   55  A    between atoms: _127  and  _128
REMARK   56  A    between atoms: _128  and  _129
REMARK   57  A    between atoms: _129  and  _130
REMARK   58  A    between atoms: _134  and  _136
REMARK   59  A    between atoms: _136  and  _137
REMARK   60  A    between atoms: _136  and  _139
REMARK   61  A    between atoms: _139  and  _140
REMARK   62  A    between atoms: _143  and  _145
REMARK   63  A    between atoms: _145  and  _146
REMARK   64  A    between atoms: _145  and  _148
REMARK   65  A    between atoms: _148  and  _149
REMARK   66  A    between atoms: _154  and  _156
REMARK   67  A    between atoms: _156  and  _157
REMARK   68  A    between atoms: _156  and  _159
REMARK   69  A    between atoms: _159  and  _160
REMARK   70  A    between atoms: _163  and  _165
REMARK   71  A    between atoms: _165  and  _166
REMARK   72  A    between atoms: _165  and  _168
REMARK   73  A    between atoms: _168  and  _169
REMARK   74  A    between atoms: _172  and  _174
REMARK   75  A    between atoms: _174  and  _175
REMARK   76  A    between atoms: _174  and  _177
REMARK   77  A    between atoms: _177  and  _178
REMARK   78  A    between atoms: _178  and  _179
REMARK   79  A    between atoms: _182  and  _184
REMARK   80  A    between atoms: _184  and  _185
REMARK   81  A    between atoms: _184  and  _187
REMARK   82  A    between atoms: _187  and  _188
REMARK   83  A    between atoms: _188  and  _189
REMARK   84  A    between atoms: _191  and  _193
REMARK   85  A    between atoms: _193  and  _194
REMARK   86  A    between atoms: _193  and  _196
REMARK   87  A    between atoms: _196  and  _197
REMARK   88  A    between atoms: _199  and  _201
REMARK   89  A    between atoms: _201  and  _202
REMARK   90  A    between atoms: _201  and  _204
REMARK   91  A    between atoms: _204  and  _205
REMARK   92  A    between atoms: _210  and  _212
REMARK   93  A    between atoms: _212  and  _213
REMARK   94  A    between atoms: _216  and  _218
REMARK   95  A    between atoms: _218  and  _219
REMARK   96  A    between atoms: _218  and  _221
REMARK   97  A    between atoms: _221  and  _222
REMARK   98  A    between atoms: _225  and  _227
REMARK   99  A    between atoms: _227  and  _228
REMARK  100  A    between atoms: _227  and  _230
REMARK  101  A    between atoms: _233  and  _235
REMARK  102  A    between atoms: _235  and  _236
REMARK  103  A    between atoms: _239  and  _240
REMARK  104  A    between atoms: _245  and  _247
REMARK  105  A    between atoms: _247  and  _248
REMARK  106  A    between atoms: _247  and  _250
REMARK  107  A    between atoms: _250  and  _251
REMARK  108  A    between atoms: _253  and  _255
REMARK  109  A    between atoms: _255  and  _256
REMARK  110  A    between atoms: _255  and  _258
REMARK  111  A    between atoms: _258  and  _259
REMARK  112  A    between atoms: _262  and  _264
REMARK  113  A    between atoms: _264  and  _265
REMARK  114  A    between atoms: _264  and  _267
REMARK  115  A    between atoms: _267  and  _268
REMARK  116  A    between atoms: _268  and  _269
REMARK  117  A    between atoms: _269  and  _270
REMARK  118  A    between atoms: _279  and  _281
REMARK  119  A    between atoms: _281  and  _282
REMARK  120  A    between atoms: _281  and  _284
REMARK  121  A    between atoms: _284  and  _285
REMARK  122  A    between atoms: _288  and  _290
REMARK  123  A    between atoms: _290  and  _291
REMARK  124  A    between atoms: _290  and  _293
REMARK  125  A    between atoms: _293  and  _294
REMARK  126  A    between atoms: _297  and  _298
REMARK  127  A    between atoms: _303  and  _305
REMARK  128  A    between atoms: _305  and  _306
REMARK  129  A    between atoms: _308  and  _310
REMARK  130  A    between atoms: _310  and  _311
REMARK  131  A    between atoms: _310  and  _313
REMARK  132  A    between atoms: _316  and  _318
REMARK  133  A    between atoms: _318  and  _319
REMARK  134  A    between atoms: _321  and  _323
REMARK  135  A    between atoms: _323  and  _324
REMARK  136  A    between atoms: _327  and  _329
REMARK  137  A    between atoms: _329  and  _330
REMARK  138  A    between atoms: _329  and  _332
REMARK  139  A    between atoms: _332  and  _333
REMARK  140  A    between atoms: _333  and  _334
REMARK  141  A    between atoms: _339  and  _341
REMARK  142  A    between atoms: _341  and  _342
REMARK  143  A    between atoms: _344  and  _346
REMARK  144  A    between atoms: _346  and  _347
REMARK  145  A    between atoms: _349  and  _351
REMARK  146  A    between atoms: _351  and  _352
REMARK  147  A    between atoms: _351  and  _354
REMARK  148  A    between atoms: _354  and  _355
REMARK  149  A    between atoms: _358  and  _360
REMARK  150  A    between atoms: _360  and  _361
REMARK  151  A    between atoms: _360  and  _363
REMARK  152  A    between atoms: _366  and  _368
REMARK  153  A    between atoms: _368  and  _369
REMARK  154  A    between atoms: _371  and  _373
REMARK  155  A    between atoms: _373  and  _374
REMARK  156  A    between atoms: _373  and  _376
REMARK  157  A    between atoms: _376  and  _377
REMARK  158  A    between atoms: _377  and  _378
REMARK  159  A    between atoms: _378  and  _379
REMARK  160  A    between atoms: _388  and  _390
REMARK  161  A    between atoms: _390  and  _391
REMARK  162  A    between atoms: _390  and  _393
REMARK  163  A    between atoms: _393  and  _394
REMARK  164  A    between atoms: _396  and  _398
REMARK  165  A    between atoms: _398  and  _399
REMARK  166  A    between atoms: _398  and  _401
REMARK  167  A    between atoms: _401  and  _402
REMARK  168  A    between atoms: _405  and  _407
REMARK  169  A    between atoms: _407  and  _408
REMARK  170  A    between atoms: _407  and  _410
REMARK  171  A    between atoms: _410  and  _411
REMARK  172  A    between atoms: _416  and  _417
REMARK  173  A    between atoms: _419  and  _421
REMARK  174  A    between atoms: _421  and  _422
REMARK  175  A    between atoms: _421  and  _424
REMARK  176  A    between atoms: _424  and  _425
REMARK  177  A    between atoms: _428  and  _430
REMARK  178  A    between atoms: _430  and  _431
REMARK  179  A    between atoms: _434  and  _436
REMARK  180  A    between atoms: _436  and  _437
REMARK  181  A    between atoms: _436  and  _439
REMARK  182  A    between atoms: _439  and  _440
REMARK  183  A    between atoms: _443  and  _445
REMARK  184  A    between atoms: _445  and  _446
REMARK  185  A    between atoms: _445  and  _448
REMARK  186  A    between atoms: _448  and  _449
REMARK  187  A    between atoms: _453  and  _454
REMARK  188  A    between atoms: _459  and  _461
REMARK  189  A    between atoms: _461  and  _462
REMARK  190  A    between atoms: _461  and  _464
REMARK  191  A    between atoms: _464  and  _465
REMARK  192  A    between atoms: _465  and  _466
REMARK  193  A    between atoms: _469  and  _471
REMARK  194  A    between atoms: _471  and  _472
REMARK  195  A    between atoms: _471  and  _474
REMARK  196  A    between atoms: _474  and  _475
REMARK  197  A    between atoms: _478  and  _480
REMARK  198  A    between atoms: _480  and  _481
REMARK  199  A    between atoms: _480  and  _483
REMARK  200  A    between atoms: _483  and  _484
REMARK  201  A    between atoms: _489  and  _491
REMARK  202  A    between atoms: _491  and  _492
REMARK  203  A    between atoms: _491  and  _494
REMARK  204  A    between atoms: _494  and  _495
REMARK  205  A    between atoms: _495  and  _496
REMARK  206  A    between atoms: _496  and  _497
REMARK  207  A    between atoms: _497  and  _498
REMARK  208  A    between atoms: _502  and  _504
REMARK  209  A    between atoms: _504  and  _505
REMARK  210  A    between atoms: _504  and  _507
REMARK  211  A    between atoms: _507  and  _508
REMARK                            x       y       z     vdW  Elec       q    Type
REMARK                         _______ _______ _______ _____ _____    ______ ____
ROOT
ATOM      1  O   HOH     1      21.323 -17.745  19.330  0.00  0.00    +0.000 OA
ENDROOT
TORSDOF 0
REMARK  Name = ../refined-set-2016/2zz1/2zz1_pocket.pdb
REMARK  211 active torsions:
REMARK  status: ('A' for Active; 'I' for Inactive)
REMARK    1  A    between atoms: _1  and  _3
REMARK    2  A    between atoms: _3  and  _4
REMARK    3  A    between atoms: _3  and  _6
REMARK    4  A    between atoms: _6  and  _7
REMARK    5  A    between atoms: _10  and  _12
REMARK    6  A    between atoms: _12  and  _13
REMARK    7  A    between atoms: _12  and  _15
REMARK    8  A    between atoms: _15  and  _16
REMARK    9  A    between atoms: _19  and  _21
REMARK   10  A    between atoms: _21  and  _22
REMARK   11  A    between atoms: _25  and  _27
REMARK   12  A    between atoms: _27  and  _28
REMARK   13  A    between atoms: _27  and  _30
REMARK   14  A    between atoms: _30  and  _31
REMARK   15  A    between atoms: _31  and  _32
REMARK   16  A    between atoms: _34  and  _36
REMARK   17  A    between atoms: _36  and  _37
REMARK   18  A    between atoms: _36  and  _39
REMARK   19  A    between atoms: _39  and  _40
REMARK   20  A    between atoms: _43  and  _45
REMARK   21  A    between atoms: _45  and  _46
REMARK   22  A    between atoms: _45  and  _48
REMARK   23  A    between atoms: _48  and  _49
REMARK   24  A    between atoms: _49  and  _50
REMARK   25  A    between atoms: _50  and  _51
REMARK   26  A    between atoms: _51  and  _52
REMARK   27  A    between atoms: _56  and  _58
REMARK   28  A    between atoms: _58  and  _59
REMARK   29  A    between atoms: _58  and  _61
REMARK   30  A    between atoms: _61  and  _62
REMARK   31  A    between atoms: _65  and  _67
REMARK   32  A    between atoms: _67  and  _68
REMARK   33  A    between atoms: _70  and  _72
REMARK   34  A    between atoms: _72  and  _73
REMARK   35  A    between atoms: _72  and  _75
REMARK   36  A    between atoms: _75  and  _76
REMARK   37  A    between atoms: _81  and  _82
REMARK   38  A    between atoms: _85  and  _86
REMARK   39  A    between atoms: _91  and  _93
REMARK   40  A    between atoms: _93  and  _94
REMARK   41  A    between atoms: _93  and  _96
REMARK   42  A    between atoms: _96  and  _97
REMARK   43  A    between atoms: _100  and  _102
REMARK   44  A    between atoms: _102  and  _103
REMARK   45  A    between atoms: _102  and  _105
REMARK   46  A    between atoms: _105  and  _106
REMARK   47  A    between atoms: _109  and  _111
REMARK   48  A    between atoms: _111  and  _112
REMARK   49  A    between atoms: _111  and  _114
REMARK   50  A    between atoms: _114  and  _115
REMARK   51  A    between atoms: _121  and  _123
REMARK   52  A    between atoms: _123  and  _124
REMARK   53  A    between atoms: _123  and  _126
REMARK   54  A    between atoms: _126  and  _127
REMARK   55  A    between atoms: _127  and  _128
REMARK   56  A    between atoms: _128  and  _129
REMARK   57  A    between atoms: _129  and  _130
REMARK   58  A    between atoms: _134  and  _136
REMARK   59  A    between atoms: _136  and  _137
REMARK   60  A    between atoms: _136  and  _139
REMARK   61  A    between atoms: _139  and  _140
REMARK   62  A    between atoms: _143  and  _145
REMARK   63  A    between atoms: _145  and  _146
REMARK   64  A    between atoms: _145  and  _148
REMARK   65  A    between atoms: _148  and  _149
REMARK   66  A    between atoms: _154  and  _156
REMARK   67  A    between atoms: _156  and  _157
REMARK   68  A    between atoms: _156  and  _159
REMARK   69  A    between atoms: _159  and  _160
REMARK   70  A    between atoms: _163  and  _165
REMARK   71  A    between atoms: _165  and  _166
REMARK   72  A    between atoms: _165  and  _168
REMARK   73  A    between atoms: _168  and  _169
REMARK   74  A    between atoms: _172  and  _174
REMARK   75  A    between atoms: _174  and  _175
REMARK   76  A    between atoms: _174  and  _177
REMARK   77  A    between atoms: _177  and  _178
REMARK   78  A    between atoms: _178  and  _179
REMARK   79  A    between atoms: _182  and  _184
REMARK   80  A    between atoms: _184  and  _185
REMARK   81  A    between atoms: _184  and  _187
REMARK   82  A    between atoms: _187  and  _188
REMARK   83  A    between atoms: _188  and  _189
REMARK   84  A    between atoms: _191  and  _193
REMARK   85  A    between atoms: _193  and  _194
REMARK   86  A    between atoms: _193  and  _196
REMARK   87  A    between atoms: _196  and  _197
REMARK   88  A    between atoms: _199  and  _201
REMARK   89  A    between atoms: _201  and  _202
REMARK   90  A    between atoms: _201  and  _204
REMARK   91  A    between atoms: _204  and  _205
REMARK   92  A    between atoms: _210  and  _212
REMARK   93  A    between atoms: _212  and  _213
REMARK   94  A    between atoms: _216  and  _218
REMARK   95  A    between atoms: _218  and  _219
REMARK   96  A    between atoms: _218  and  _221
REMARK   97  A    between atoms: _221  and  _222
REMARK   98  A    between atoms: _225  and  _227
REMARK   99  A    between atoms: _227  and  _228
REMARK  100  A    between atoms: _227  and  _230
REMARK  101  A    between atoms: _233  and  _235
REMARK  102  A    between atoms: _235  and  _236
REMARK  103  A    between atoms: _239  and  _240
REMARK  104  A    between atoms: _245  and  _247
REMARK  105  A    between atoms: _247  and  _248
REMARK  106  A    between atoms: _247  and  _250
REMARK  107  A    between atoms: _250  and  _251
REMARK  108  A    between atoms: _253  and  _255
REMARK  109  A    between atoms: _255  and  _256
REMARK  110  A    between atoms: _255  and  _258
REMARK  111  A    between atoms: _258  and  _259
REMARK  112  A    between atoms: _262  and  _264
REMARK  113  A    between atoms: _264  and  _265
REMARK  114  A    between atoms: _264  and  _267
REMARK  115  A    between atoms: _267  and  _268
REMARK  116  A    between atoms: _268  and  _269
REMARK  117  A    between atoms: _269  and  _270
REMARK  118  A    between atoms: _279  and  _281
REMARK  119  A    between atoms: _281  and  _282
REMARK  120  A    between atoms: _281  and  _284
REMARK  121  A    between atoms: _284  and  _285
REMARK  122  A    between atoms: _288  and  _290
REMARK  123  A    between atoms: _290  and  _291
REMARK  124  A    between atoms: _290  and  _293
REMARK  125  A    between atoms: _293  and  _294
REMARK  126  A    between atoms: _297  and  _298
REMARK  127  A    between atoms: _303  and  _305
REMARK  128  A    between atoms: _305  and  _306
REMARK  129  A    between atoms: _308  and  _310
REMARK  130  A    between atoms: _310  and  _311
REMARK  131  A    between atoms: _310  and  _313
REMARK  132  A    between atoms: _316  and  _318
REMARK  133  A    between atoms: _318  and  _319
REMARK  134  A    between atoms: _321  and  _323
REMARK  135  A    between atoms: _323  and  _324
REMARK  136  A    between atoms: _327  and  _329
REMARK  137  A    between atoms: _329  and  _330
REMARK  138  A    between atoms: _329  and  _332
REMARK  139  A    between atoms: _332  and  _333
REMARK  140  A    between atoms: _333  and  _334
REMARK  141  A    between atoms: _339  and  _341
REMARK  142  A    between atoms: _341  and  _342
REMARK  143  A    between atoms: _344  and  _346
REMARK  144  A    between atoms: _346  and  _347
REMARK  145  A    between atoms: _349  and  _351
REMARK  146  A    between atoms: _351  and  _352
REMARK  147  A    between atoms: _351  and  _354
REMARK  148  A    between atoms: _354  and  _355
REMARK  149  A    between atoms: _358  and  _360
REMARK  150  A    between atoms: _360  and  _361
REMARK  151  A    between atoms: _360  and  _363
REMARK  152  A    between atoms: _366  and  _368
REMARK  153  A    between atoms: _368  and  _369
REMARK  154  A    between atoms: _371  and  _373
REMARK  155  A    between atoms: _373  and  _374
REMARK  156  A    between atoms: _373  and  _376
REMARK  157  A    between atoms: _376  and  _377
REMARK  158  A    between atoms: _377  and  _378
REMARK  159  A    between atoms: _378  and  _379
REMARK  160  A    between atoms: _388  and  _390
REMARK  161  A    between atoms: _390  and  _391
REMARK  162  A    between atoms: _390  and  _393
REMARK  163  A    between atoms: _393  and  _394
REMARK  164  A    between atoms: _396  and  _398
REMARK  165  A    between atoms: _398  and  _399
REMARK  166  A    between atoms: _398  and  _401
REMARK  167  A    between atoms: _401  and  _402
REMARK  168  A    between atoms: _405  and  _407
REMARK  169  A    between atoms: _407  and  _408
REMARK  170  A    between atoms: _407  and  _410
REMARK  171  A    between atoms: _410  and  _411
REMARK  172  A    between atoms: _416  and  _417
REMARK  173  A    between atoms: _419  and  _421
REMARK  174  A    between atoms: _421  and  _422
REMARK  175  A    between atoms: _421  and  _424
REMARK  176  A    between atoms: _424  and  _425
REMARK  177  A    between atoms: _428  and  _430
REMARK  178  A    between atoms: _430  and  _431
REMARK  179  A    between atoms: _434  and  _436
REMARK  180  A    between atoms: _436  and  _437
REMARK  181  A    between atoms: _436  and  _439
REMARK  182  A    between atoms: _439  and  _440
REMARK  183  A    between atoms: _443  and  _445
REMARK  184  A    between atoms: _445  and  _446
REMARK  185  A    between atoms: _445  and  _448
REMARK  186  A    between atoms: _448  and  _449
REMARK  187  A    between atoms: _453  and  _454
REMARK  188  A    between atoms: _459  and  _461
REMARK  189  A    between atoms: _461  and  _462
REMARK  190  A    between atoms: _461  and  _464
REMARK  191  A    between atoms: _464  and  _465
REMARK  192  A    between atoms: _465  and  _466
REMARK  193  A    between atoms: _469  and  _471
REMARK  194  A    between atoms: _471  and  _472
REMARK  195  A    between atoms: _471  and  _474
REMARK  196  A    between atoms: _474  and  _475
REMARK  197  A    between atoms: _478  and  _480
REMARK  198  A    between atoms: _480  and  _481
REMARK  199  A    between atoms: _480  and  _483
REMARK  200  A    between atoms: _483  and  _484
REMARK  201  A    between atoms: _489  and  _491
REMARK  202  A    between atoms: _491  and  _492
REMARK  203  A    between atoms: _491  and  _494
REMARK  204  A    between atoms: _494  and  _495
REMARK  205  A    between atoms: _495  and  _496
REMARK  206  A    between atoms: _496  and  _497
REMARK  207  A    between atoms: _497  and  _498
REMARK  208  A    between atoms: _502  and  _504
REMARK  209  A    between atoms: _504  and  _505
REMARK  210  A    between atoms: _504  and  _507
REMARK  211  A    between atoms: _507  and  _508
REMARK                            x       y       z     vdW  Elec       q    Type
REMARK                         _______ _______ _______ _____ _____    ______ ____
ROOT
ATOM      1  O   HOH     1      26.980 -22.040  17.445  0.00  0.00    +0.000 OA
ENDROOT
TORSDOF 0
REMARK  Name = ../refined-set-2016/2zz1/2zz1_pocket.pdb
REMARK  211 active torsions:
REMARK  status: ('A' for Active; 'I' for Inactive)
REMARK    1  A    between atoms: _1  and  _3
REMARK    2  A    between atoms: _3  and  _4
REMARK    3  A    between atoms: _3  and  _6
REMARK    4  A    between atoms: _6  and  _7
REMARK    5  A    between atoms: _10  and  _12
REMARK    6  A    between atoms: _12  and  _13
REMARK    7  A    between atoms: _12  and  _15
REMARK    8  A    between atoms: _15  and  _16
REMARK    9  A    between atoms: _19  and  _21
REMARK   10  A    between atoms: _21  and  _22
REMARK   11  A    between atoms: _25  and  _27
REMARK   12  A    between atoms: _27  and  _28
REMARK   13  A    between atoms: _27  and  _30
REMARK   14  A    between atoms: _30  and  _31
REMARK   15  A    between atoms: _31  and  _32
REMARK   16  A    between atoms: _34  and  _36
REMARK   17  A    between atoms: _36  and  _37
REMARK   18  A    between atoms: _36  and  _39
REMARK   19  A    between atoms: _39  and  _40
REMARK   20  A    between atoms: _43  and  _45
REMARK   21  A    between atoms: _45  and  _46
REMARK   22  A    between atoms: _45  and  _48
REMARK   23  A    between atoms: _48  and  _49
REMARK   24  A    between atoms: _49  and  _50
REMARK   25  A    between atoms: _50  and  _51
REMARK   26  A    between atoms: _51  and  _52
REMARK   27  A    between atoms: _56  and  _58
REMARK   28  A    between atoms: _58  and  _59
REMARK   29  A    between atoms: _58  and  _61
REMARK   30  A    between atoms: _61  and  _62
REMARK   31  A    between atoms: _65  and  _67
REMARK   32  A    between atoms: _67  and  _68
REMARK   33  A    between atoms: _70  and  _72
REMARK   34  A    between atoms: _72  and  _73
REMARK   35  A    between atoms: _72  and  _75
REMARK   36  A    between atoms: _75  and  _76
REMARK   37  A    between atoms: _81  and  _82
REMARK   38  A    between atoms: _85  and  _86
REMARK   39  A    between atoms: _91  and  _93
REMARK   40  A    between atoms: _93  and  _94
REMARK   41  A    between atoms: _93  and  _96
REMARK   42  A    between atoms: _96  and  _97
REMARK   43  A    between atoms: _100  and  _102
REMARK   44  A    between atoms: _102  and  _103
REMARK   45  A    between atoms: _102  and  _105
REMARK   46  A    between atoms: _105  and  _106
REMARK   47  A    between atoms: _109  and  _111
REMARK   48  A    between atoms: _111  and  _112
REMARK   49  A    between atoms: _111  and  _114
REMARK   50  A    between atoms: _114  and  _115
REMARK   51  A    between atoms: _121  and  _123
REMARK   52  A    between atoms: _123  and  _124
REMARK   53  A    between atoms: _123  and  _126
REMARK   54  A    between atoms: _126  and  _127
REMARK   55  A    between atoms: _127  and  _128
REMARK   56  A    between atoms: _128  and  _129
REMARK   57  A    between atoms: _129  and  _130
REMARK   58  A    between atoms: _134  and  _136
REMARK   59  A    between atoms: _136  and  _137
REMARK   60  A    between atoms: _136  and  _139
REMARK   61  A    between atoms: _139  and  _140
REMARK   62  A    between atoms: _143  and  _145
REMARK   63  A    between atoms: _145  and  _146
REMARK   64  A    between atoms: _145  and  _148
REMARK   65  A    between atoms: _148  and  _149
REMARK   66  A    between atoms: _154  and  _156
REMARK   67  A    between atoms: _156  and  _157
REMARK   68  A    between atoms: _156  and  _159
REMARK   69  A    between atoms: _159  and  _160
REMARK   70  A    between atoms: _163  and  _165
REMARK   71  A    between atoms: _165  and  _166
REMARK   72  A    between atoms: _165  and  _168
REMARK   73  A    between atoms: _168  and  _169
REMARK   74  A    between atoms: _172  and  _174
REMARK   75  A    between atoms: _174  and  _175
REMARK   76  A    between atoms: _174  and  _177
REMARK   77  A    between atoms: _177  and  _178
REMARK   78  A    between atoms: _178  and  _179
REMARK   79  A    between atoms: _182  and  _184
REMARK   80  A    between atoms: _184  and  _185
REMARK   81  A    between atoms: _184  and  _187
REMARK   82  A    between atoms: _187  and  _188
REMARK   83  A    between atoms: _188  and  _189
REMARK   84  A    between atoms: _191  and  _193
REMARK   85  A    between atoms: _193  and  _194
REMARK   86  A    between atoms: _193  and  _196
REMARK   87  A    between atoms: _196  and  _197
REMARK   88  A    between atoms: _199  and  _201
REMARK   89  A    between atoms: _201  and  _202
REMARK   90  A    between atoms: _201  and  _204
REMARK   91  A    between atoms: _204  and  _205
REMARK   92  A    between atoms: _210  and  _212
REMARK   93  A    between atoms: _212  and  _213
REMARK   94  A    between atoms: _216  and  _218
REMARK   95  A    between atoms: _218  and  _219
REMARK   96  A    between atoms: _218  and  _221
REMARK   97  A    between atoms: _221  and  _222
REMARK   98  A    between atoms: _225  and  _227
REMARK   99  A    between atoms: _227  and  _228
REMARK  100  A    between atoms: _227  and  _230
REMARK  101  A    between atoms: _233  and  _235
REMARK  102  A    between atoms: _235  and  _236
REMARK  103  A    between atoms: _239  and  _240
REMARK  104  A    between atoms: _245  and  _247
REMARK  105  A    between atoms: _247  and  _248
REMARK  106  A    between atoms: _247  and  _250
REMARK  107  A    between atoms: _250  and  _251
REMARK  108  A    between atoms: _253  and  _255
REMARK  109  A    between atoms: _255  and  _256
REMARK  110  A    between atoms: _255  and  _258
REMARK  111  A    between atoms: _258  and  _259
REMARK  112  A    between atoms: _262  and  _264
REMARK  113  A    between atoms: _264  and  _265
REMARK  114  A    between atoms: _264  and  _267
REMARK  115  A    between atoms: _267  and  _268
REMARK  116  A    between atoms: _268  and  _269
REMARK  117  A    between atoms: _269  and  _270
REMARK  118  A    between atoms: _279  and  _281
REMARK  119  A    between atoms: _281  and  _282
REMARK  120  A    between atoms: _281  and  _284
REMARK  121  A    between atoms: _284  and  _285
REMARK  122  A    between atoms: _288  and  _290
REMARK  123  A    between atoms: _290  and  _291
REMARK  124  A    between atoms: _290  and  _293
REMARK  125  A    between atoms: _293  and  _294
REMARK  126  A    between atoms: _297  and  _298
REMARK  127  A    between atoms: _303  and  _305
REMARK  128  A    between atoms: _305  and  _306
REMARK  129  A    between atoms: _308  and  _310
REMARK  130  A    between atoms: _310  and  _311
REMARK  131  A    between atoms: _310  and  _313
REMARK  132  A    between atoms: _316  and  _318
REMARK  133  A    between atoms: _318  and  _319
REMARK  134  A    between atoms: _321  and  _323
REMARK  135  A    between atoms: _323  and  _324
REMARK  136  A    between atoms: _327  and  _329
REMARK  137  A    between atoms: _329  and  _330
REMARK  138  A    between atoms: _329  and  _332
REMARK  139  A    between atoms: _332  and  _333
REMARK  140  A    between atoms: _333  and  _334
REMARK  141  A    between atoms: _339  and  _341
REMARK  142  A    between atoms: _341  and  _342
REMARK  143  A    between atoms: _344  and  _346
REMARK  144  A    between atoms: _346  and  _347
REMARK  145  A    between atoms: _349  and  _351
REMARK  146  A    between atoms: _351  and  _352
REMARK  147  A    between atoms: _351  and  _354
REMARK  148  A    between atoms: _354  and  _355
REMARK  149  A    between atoms: _358  and  _360
REMARK  150  A    between atoms: _360  and  _361
REMARK  151  A    between atoms: _360  and  _363
REMARK  152  A    between atoms: _366  and  _368
REMARK  153  A    between atoms: _368  and  _369
REMARK  154  A    between atoms: _371  and  _373
REMARK  155  A    between atoms: _373  and  _374
REMARK  156  A    between atoms: _373  and  _376
REMARK  157  A    between atoms: _376  and  _377
REMARK  158  A    between atoms: _377  and  _378
REMARK  159  A    between atoms: _378  and  _379
REMARK  160  A    between atoms: _388  and  _390
REMARK  161  A    between atoms: _390  and  _391
REMARK  162  A    between atoms: _390  and  _393
REMARK  163  A    between atoms: _393  and  _394
REMARK  164  A    between atoms: _396  and  _398
REMARK  165  A    between atoms: _398  and  _399
REMARK  166  A    between atoms: _398  and  _401
REMARK  167  A    between atoms: _401  and  _402
REMARK  168  A    between atoms: _405  and  _407
REMARK  169  A    between atoms: _407  and  _408
REMARK  170  A    between atoms: _407  and  _410
REMARK  171  A    between atoms: _410  and  _411
REMARK  172  A    between atoms: _416  and  _417
REMARK  173  A    between atoms: _419  and  _421
REMARK  174  A    between atoms: _421  and  _422
REMARK  175  A    between atoms: _421  and  _424
REMARK  176  A    between atoms: _424  and  _425
REMARK  177  A    between atoms: _428  and  _430
REMARK  178  A    between atoms: _430  and  _431
REMARK  179  A    between atoms: _434  and  _436
REMARK  180  A    between atoms: _436  and  _437
REMARK  181  A    between atoms: _436  and  _439
REMARK  182  A    between atoms: _439  and  _440
REMARK  183  A    between atoms: _443  and  _445
REMARK  184  A    between atoms: _445  and  _446
REMARK  185  A    between atoms: _445  and  _448
REMARK  186  A    between atoms: _448  and  _449
REMARK  187  A    between atoms: _453  and  _454
REMARK  188  A    between atoms: _459  and  _461
REMARK  189  A    between atoms: _461  and  _462
REMARK  190  A    between atoms: _461  and  _464
REMARK  191  A    between atoms: _464  and  _465
REMARK  192  A    between atoms: _465  and  _466
REMARK  193  A    between atoms: _469  and  _471
REMARK  194  A    between atoms: _471  and  _472
REMARK  195  A    between atoms: _471  and  _474
REMARK  196  A    between atoms: _474  and  _475
REMARK  197  A    between atoms: _478  and  _480
REMARK  198  A    between atoms: _480  and  _481
REMARK  199  A    between atoms: _480  and  _483
REMARK  200  A    between atoms: _483  and  _484
REMARK  201  A    between atoms: _489  and  _491
REMARK  202  A    between atoms: _491  and  _492
REMARK  203  A    between atoms: _491  and  _494
REMARK  204  A    between atoms: _494  and  _495
REMARK  205  A    between atoms: _495  and  _496
REMARK  206  A    between atoms: _496  and  _497
REMARK  207  A    between atoms: _497  and  _498
REMARK  208  A    between atoms: _502  and  _504
REMARK  209  A    between atoms: _504  and  _505
REMARK  210  A    between atoms: _504  and  _507
REMARK  211  A    between atoms: _507  and  _508
REMARK                            x       y       z     vdW  Elec       q    Type
REMARK                         _______ _______ _______ _____ _____    ______ ____
ROOT
ATOM      1  O   HOH     1      31.578 -12.398  10.668  0.00  0.00    +0.000 OA
ENDROOT
TORSDOF 0
REMARK  Name = ../refined-set-2016/2zz1/2zz1_pocket.pdb
REMARK  211 active torsions:
REMARK  status: ('A' for Active; 'I' for Inactive)
REMARK    1  A    between atoms: _1  and  _3
REMARK    2  A    between atoms: _3  and  _4
REMARK    3  A    between atoms: _3  and  _6
REMARK    4  A    between atoms: _6  and  _7
REMARK    5  A    between atoms: _10  and  _12
REMARK    6  A    between atoms: _12  and  _13
REMARK    7  A    between atoms: _12  and  _15
REMARK    8  A    between atoms: _15  and  _16
REMARK    9  A    between atoms: _19  and  _21
REMARK   10  A    between atoms: _21  and  _22
REMARK   11  A    between atoms: _25  and  _27
REMARK   12  A    between atoms: _27  and  _28
REMARK   13  A    between atoms: _27  and  _30
REMARK   14  A    between atoms: _30  and  _31
REMARK   15  A    between atoms: _31  and  _32
REMARK   16  A    between atoms: _34  and  _36
REMARK   17  A    between atoms: _36  and  _37
REMARK   18  A    between atoms: _36  and  _39
REMARK   19  A    between atoms: _39  and  _40
REMARK   20  A    between atoms: _43  and  _45
REMARK   21  A    between atoms: _45  and  _46
REMARK   22  A    between atoms: _45  and  _48
REMARK   23  A    between atoms: _48  and  _49
REMARK   24  A    between atoms: _49  and  _50
REMARK   25  A    between atoms: _50  and  _51
REMARK   26  A    between atoms: _51  and  _52
REMARK   27  A    between atoms: _56  and  _58
REMARK   28  A    between atoms: _58  and  _59
REMARK   29  A    between atoms: _58  and  _61
REMARK   30  A    between atoms: _61  and  _62
REMARK   31  A    between atoms: _65  and  _67
REMARK   32  A    between atoms: _67  and  _68
REMARK   33  A    between atoms: _70  and  _72
REMARK   34  A    between atoms: _72  and  _73
REMARK   35  A    between atoms: _72  and  _75
REMARK   36  A    between atoms: _75  and  _76
REMARK   37  A    between atoms: _81  and  _82
REMARK   38  A    between atoms: _85  and  _86
REMARK   39  A    between atoms: _91  and  _93
REMARK   40  A    between atoms: _93  and  _94
REMARK   41  A    between atoms: _93  and  _96
REMARK   42  A    between atoms: _96  and  _97
REMARK   43  A    between atoms: _100  and  _102
REMARK   44  A    between atoms: _102  and  _103
REMARK   45  A    between atoms: _102  and  _105
REMARK   46  A    between atoms: _105  and  _106
REMARK   47  A    between atoms: _109  and  _111
REMARK   48  A    between atoms: _111  and  _112
REMARK   49  A    between atoms: _111  and  _114
REMARK   50  A    between atoms: _114  and  _115
REMARK   51  A    between atoms: _121  and  _123
REMARK   52  A    between atoms: _123  and  _124
REMARK   53  A    between atoms: _123  and  _126
REMARK   54  A    between atoms: _126  and  _127
REMARK   55  A    between atoms: _127  and  _128
REMARK   56  A    between atoms: _128  and  _129
REMARK   57  A    between atoms: _129  and  _130
REMARK   58  A    between atoms: _134  and  _136
REMARK   59  A    between atoms: _136  and  _137
REMARK   60  A    between atoms: _136  and  _139
REMARK   61  A    between atoms: _139  and  _140
REMARK   62  A    between atoms: _143  and  _145
REMARK   63  A    between atoms: _145  and  _146
REMARK   64  A    between atoms: _145  and  _148
REMARK   65  A    between atoms: _148  and  _149
REMARK   66  A    between atoms: _154  and  _156
REMARK   67  A    between atoms: _156  and  _157
REMARK   68  A    between atoms: _156  and  _159
REMARK   69  A    between atoms: _159  and  _160
REMARK   70  A    between atoms: _163  and  _165
REMARK   71  A    between atoms: _165  and  _166
REMARK   72  A    between atoms: _165  and  _168
REMARK   73  A    between atoms: _168  and  _169
REMARK   74  A    between atoms: _172  and  _174
REMARK   75  A    between atoms: _174  and  _175
REMARK   76  A    between atoms: _174  and  _177
REMARK   77  A    between atoms: _177  and  _178
REMARK   78  A    between atoms: _178  and  _179
REMARK   79  A    between atoms: _182  and  _184
REMARK   80  A    between atoms: _184  and  _185
REMARK   81  A    between atoms: _184  and  _187
REMARK   82  A    between atoms: _187  and  _188
REMARK   83  A    between atoms: _188  and  _189
REMARK   84  A    between atoms: _191  and  _193
REMARK   85  A    between atoms: _193  and  _194
REMARK   86  A    between atoms: _193  and  _196
REMARK   87  A    between atoms: _196  and  _197
REMARK   88  A    between atoms: _199  and  _201
REMARK   89  A    between atoms: _201  and  _202
REMARK   90  A    between atoms: _201  and  _204
REMARK   91  A    between atoms: _204  and  _205
REMARK   92  A    between atoms: _210  and  _212
REMARK   93  A    between atoms: _212  and  _213
REMARK   94  A    between atoms: _216  and  _218
REMARK   95  A    between atoms: _218  and  _219
REMARK   96  A    between atoms: _218  and  _221
REMARK   97  A    between atoms: _221  and  _222
REMARK   98  A    between atoms: _225  and  _227
REMARK   99  A    between atoms: _227  and  _228
REMARK  100  A    between atoms: _227  and  _230
REMARK  101  A    between atoms: _233  and  _235
REMARK  102  A    between atoms: _235  and  _236
REMARK  103  A    between atoms: _239  and  _240
REMARK  104  A    between atoms: _245  and  _247
REMARK  105  A    between atoms: _247  and  _248
REMARK  106  A    between atoms: _247  and  _250
REMARK  107  A    between atoms: _250  and  _251
REMARK  108  A    between atoms: _253  and  _255
REMARK  109  A    between atoms: _255  and  _256
REMARK  110  A    between atoms: _255  and  _258
REMARK  111  A    between atoms: _258  and  _259
REMARK  112  A    between atoms: _262  and  _264
REMARK  113  A    between atoms: _264  and  _265
REMARK  114  A    between atoms: _264  and  _267
REMARK  115  A    between atoms: _267  and  _268
REMARK  116  A    between atoms: _268  and  _269
REMARK  117  A    between atoms: _269  and  _270
REMARK  118  A    between atoms: _279  and  _281
REMARK  119  A    between atoms: _281  and  _282
REMARK  120  A    between atoms: _281  and  _284
REMARK  121  A    between atoms: _284  and  _285
REMARK  122  A    between atoms: _288  and  _290
REMARK  123  A    between atoms: _290  and  _291
REMARK  124  A    between atoms: _290  and  _293
REMARK  125  A    between atoms: _293  and  _294
REMARK  126  A    between atoms: _297  and  _298
REMARK  127  A    between atoms: _303  and  _305
REMARK  128  A    between atoms: _305  and  _306
REMARK  129  A    between atoms: _308  and  _310
REMARK  130  A    between atoms: _310  and  _311
REMARK  131  A    between atoms: _310  and  _313
REMARK  132  A    between atoms: _316  and  _318
REMARK  133  A    between atoms: _318  and  _319
REMARK  134  A    between atoms: _321  and  _323
REMARK  135  A    between atoms: _323  and  _324
REMARK  136  A    between atoms: _327  and  _329
REMARK  137  A    between atoms: _329  and  _330
REMARK  138  A    between atoms: _329  and  _332
REMARK  139  A    between atoms: _332  and  _333
REMARK  140  A    between atoms: _333  and  _334
REMARK  141  A    between atoms: _339  and  _341
REMARK  142  A    between atoms: _341  and  _342
REMARK  143  A    between atoms: _344  and  _346
REMARK  144  A    between atoms: _346  and  _347
REMARK  145  A    between atoms: _349  and  _351
REMARK  146  A    between atoms: _351  and  _352
REMARK  147  A    between atoms: _351  and  _354
REMARK  148  A    between atoms: _354  and  _355
REMARK  149  A    between atoms: _358  and  _360
REMARK  150  A    between atoms: _360  and  _361
REMARK  151  A    between atoms: _360  and  _363
REMARK  152  A    between atoms: _366  and  _368
REMARK  153  A    between atoms: _368  and  _369
REMARK  154  A    between atoms: _371  and  _373
REMARK  155  A    between atoms: _373  and  _374
REMARK  156  A    between atoms: _373  and  _376
REMARK  157  A    between atoms: _376  and  _377
REMARK  158  A    between atoms: _377  and  _378
REMARK  159  A    between atoms: _378  and  _379
REMARK  160  A    between atoms: _388  and  _390
REMARK  161  A    between atoms: _390  and  _391
REMARK  162  A    between atoms: _390  and  _393
REMARK  163  A    between atoms: _393  and  _394
REMARK  164  A    between atoms: _396  and  _398
REMARK  165  A    between atoms: _398  and  _399
REMARK  166  A    between atoms: _398  and  _401
REMARK  167  A    between atoms: _401  and  _402
REMARK  168  A    between atoms: _405  and  _407
REMARK  169  A    between atoms: _407  and  _408
REMARK  170  A    between atoms: _407  and  _410
REMARK  171  A    between atoms: _410  and  _411
REMARK  172  A    between atoms: _416  and  _417
REMARK  173  A    between atoms: _419  and  _421
REMARK  174  A    between atoms: _421  and  _422
REMARK  175  A    between atoms: _421  and  _424
REMARK  176  A    between atoms: _424  and  _425
REMARK  177  A    between atoms: _428  and  _430
REMARK  178  A    between atoms: _430  and  _431
REMARK  179  A    between atoms: _434  and  _436
REMARK  180  A    between atoms: _436  and  _437
REMARK  181  A    between atoms: _436  and  _439
REMARK  182  A    between atoms: _439  and  _440
REMARK  183  A    between atoms: _443  and  _445
REMARK  184  A    between atoms: _445  and  _446
REMARK  185  A    between atoms: _445  and  _448
REMARK  186  A    between atoms: _448  and  _449
REMARK  187  A    between atoms: _453  and  _454
REMARK  188  A    between atoms: _459  and  _461
REMARK  189  A    between atoms: _461  and  _462
REMARK  190  A    between atoms: _461  and  _464
REMARK  191  A    between atoms: _464  and  _465
REMARK  192  A    between atoms: _465  and  _466
REMARK  193  A    between atoms: _469  and  _471
REMARK  194  A    between atoms: _471  and  _472
REMARK  195  A    between atoms: _471  and  _474
REMARK  196  A    between atoms: _474  and  _475
REMARK  197  A    between atoms: _478  and  _480
REMARK  198  A    between atoms: _480  and  _481
REMARK  199  A    between atoms: _480  and  _483
REMARK  200  A    between atoms: _483  and  _484
REMARK  201  A    between atoms: _489  and  _491
REMARK  202  A    between atoms: _491  and  _492
REMARK  203  A    between atoms: _491  and  _494
REMARK  204  A    between atoms: _494  and  _495
REMARK  205  A    between atoms: _495  and  _496
REMARK  206  A    between atoms: _496  and  _497
REMARK  207  A    between atoms: _497  and  _498
REMARK  208  A    between atoms: _502  and  _504
REMARK  209  A    between atoms: _504  and  _505
REMARK  210  A    between atoms: _504  and  _507
REMARK  211  A    between atoms: _507  and  _508
REMARK                            x       y       z     vdW  Elec       q    Type
REMARK                         _______ _______ _______ _____ _____    ______ ____
ROOT
ATOM      1  O   HOH     1      23.256  -8.220   8.199  0.00  0.00    +0.000 OA
ENDROOT
TORSDOF 0
REMARK  Name = ../refined-set-2016/2zz1/2zz1_pocket.pdb
REMARK  211 active torsions:
REMARK  status: ('A' for Active; 'I' for Inactive)
REMARK    1  A    between atoms: _1  and  _3
REMARK    2  A    between atoms: _3  and  _4
REMARK    3  A    between atoms: _3  and  _6
REMARK    4  A    between atoms: _6  and  _7
REMARK    5  A    between atoms: _10  and  _12
REMARK    6  A    between atoms: _12  and  _13
REMARK    7  A    between atoms: _12  and  _15
REMARK    8  A    between atoms: _15  and  _16
REMARK    9  A    between atoms: _19  and  _21
REMARK   10  A    between atoms: _21  and  _22
REMARK   11  A    between atoms: _25  and  _27
REMARK   12  A    between atoms: _27  and  _28
REMARK   13  A    between atoms: _27  and  _30
REMARK   14  A    between atoms: _30  and  _31
REMARK   15  A    between atoms: _31  and  _32
REMARK   16  A    between atoms: _34  and  _36
REMARK   17  A    between atoms: _36  and  _37
REMARK   18  A    between atoms: _36  and  _39
REMARK   19  A    between atoms: _39  and  _40
REMARK   20  A    between atoms: _43  and  _45
REMARK   21  A    between atoms: _45  and  _46
REMARK   22  A    between atoms: _45  and  _48
REMARK   23  A    between atoms: _48  and  _49
REMARK   24  A    between atoms: _49  and  _50
REMARK   25  A    between atoms: _50  and  _51
REMARK   26  A    between atoms: _51  and  _52
REMARK   27  A    between atoms: _56  and  _58
REMARK   28  A    between atoms: _58  and  _59
REMARK   29  A    between atoms: _58  and  _61
REMARK   30  A    between atoms: _61  and  _62
REMARK   31  A    between atoms: _65  and  _67
REMARK   32  A    between atoms: _67  and  _68
REMARK   33  A    between atoms: _70  and  _72
REMARK   34  A    between atoms: _72  and  _73
REMARK   35  A    between atoms: _72  and  _75
REMARK   36  A    between atoms: _75  and  _76
REMARK   37  A    between atoms: _81  and  _82
REMARK   38  A    between atoms: _85  and  _86
REMARK   39  A    between atoms: _91  and  _93
REMARK   40  A    between atoms: _93  and  _94
REMARK   41  A    between atoms: _93  and  _96
REMARK   42  A    between atoms: _96  and  _97
REMARK   43  A    between atoms: _100  and  _102
REMARK   44  A    between atoms: _102  and  _103
REMARK   45  A    between atoms: _102  and  _105
REMARK   46  A    between atoms: _105  and  _106
REMARK   47  A    between atoms: _109  and  _111
REMARK   48  A    between atoms: _111  and  _112
REMARK   49  A    between atoms: _111  and  _114
REMARK   50  A    between atoms: _114  and  _115
REMARK   51  A    between atoms: _121  and  _123
REMARK   52  A    between atoms: _123  and  _124
REMARK   53  A    between atoms: _123  and  _126
REMARK   54  A    between atoms: _126  and  _127
REMARK   55  A    between atoms: _127  and  _128
REMARK   56  A    between atoms: _128  and  _129
REMARK   57  A    between atoms: _129  and  _130
REMARK   58  A    between atoms: _134  and  _136
REMARK   59  A    between atoms: _136  and  _137
REMARK   60  A    between atoms: _136  and  _139
REMARK   61  A    between atoms: _139  and  _140
REMARK   62  A    between atoms: _143  and  _145
REMARK   63  A    between atoms: _145  and  _146
REMARK   64  A    between atoms: _145  and  _148
REMARK   65  A    between atoms: _148  and  _149
REMARK   66  A    between atoms: _154  and  _156
REMARK   67  A    between atoms: _156  and  _157
REMARK   68  A    between atoms: _156  and  _159
REMARK   69  A    between atoms: _159  and  _160
REMARK   70  A    between atoms: _163  and  _165
REMARK   71  A    between atoms: _165  and  _166
REMARK   72  A    between atoms: _165  and  _168
REMARK   73  A    between atoms: _168  and  _169
REMARK   74  A    between atoms: _172  and  _174
REMARK   75  A    between atoms: _174  and  _175
REMARK   76  A    between atoms: _174  and  _177
REMARK   77  A    between atoms: _177  and  _178
REMARK   78  A    between atoms: _178  and  _179
REMARK   79  A    between atoms: _182  and  _184
REMARK   80  A    between atoms: _184  and  _185
REMARK   81  A    between atoms: _184  and  _187
REMARK   82  A    between atoms: _187  and  _188
REMARK   83  A    between atoms: _188  and  _189
REMARK   84  A    between atoms: _191  and  _193
REMARK   85  A    between atoms: _193  and  _194
REMARK   86  A    between atoms: _193  and  _196
REMARK   87  A    between atoms: _196  and  _197
REMARK   88  A    between atoms: _199  and  _201
REMARK   89  A    between atoms: _201  and  _202
REMARK   90  A    between atoms: _201  and  _204
REMARK   91  A    between atoms: _204  and  _205
REMARK   92  A    between atoms: _210  and  _212
REMARK   93  A    between atoms: _212  and  _213
REMARK   94  A    between atoms: _216  and  _218
REMARK   95  A    between atoms: _218  and  _219
REMARK   96  A    between atoms: _218  and  _221
REMARK   97  A    between atoms: _221  and  _222
REMARK   98  A    between atoms: _225  and  _227
REMARK   99  A    between atoms: _227  and  _228
REMARK  100  A    between atoms: _227  and  _230
REMARK  101  A    between atoms: _233  and  _235
REMARK  102  A    between atoms: _235  and  _236
REMARK  103  A    between atoms: _239  and  _240
REMARK  104  A    between atoms: _245  and  _247
REMARK  105  A    between atoms: _247  and  _248
REMARK  106  A    between atoms: _247  and  _250
REMARK  107  A    between atoms: _250  and  _251
REMARK  108  A    between atoms: _253  and  _255
REMARK  109  A    between atoms: _255  and  _256
REMARK  110  A    between atoms: _255  and  _258
REMARK  111  A    between atoms: _258  and  _259
REMARK  112  A    between atoms: _262  and  _264
REMARK  113  A    between atoms: _264  and  _265
REMARK  114  A    between atoms: _264  and  _267
REMARK  115  A    between atoms: _267  and  _268
REMARK  116  A    between atoms: _268  and  _269
REMARK  117  A    between atoms: _269  and  _270
REMARK  118  A    between atoms: _279  and  _281
REMARK  119  A    between atoms: _281  and  _282
REMARK  120  A    between atoms: _281  and  _284
REMARK  121  A    between atoms: _284  and  _285
REMARK  122  A    between atoms: _288  and  _290
REMARK  123  A    between atoms: _290  and  _291
REMARK  124  A    between atoms: _290  and  _293
REMARK  125  A    between atoms: _293  and  _294
REMARK  126  A    between atoms: _297  and  _298
REMARK  127  A    between atoms: _303  and  _305
REMARK  128  A    between atoms: _305  and  _306
REMARK  129  A    between atoms: _308  and  _310
REMARK  130  A    between atoms: _310  and  _311
REMARK  131  A    between atoms: _310  and  _313
REMARK  132  A    between atoms: _316  and  _318
REMARK  133  A    between atoms: _318  and  _319
REMARK  134  A    between atoms: _321  and  _323
REMARK  135  A    between atoms: _323  and  _324
REMARK  136  A    between atoms: _327  and  _329
REMARK  137  A    between atoms: _329  and  _330
REMARK  138  A    between atoms: _329  and  _332
REMARK  139  A    between atoms: _332  and  _333
REMARK  140  A    between atoms: _333  and  _334
REMARK  141  A    between atoms: _339  and  _341
REMARK  142  A    between atoms: _341  and  _342
REMARK  143  A    between atoms: _344  and  _346
REMARK  144  A    between atoms: _346  and  _347
REMARK  145  A    between atoms: _349  and  _351
REMARK  146  A    between atoms: _351  and  _352
REMARK  147  A    between atoms: _351  and  _354
REMARK  148  A    between atoms: _354  and  _355
REMARK  149  A    between atoms: _358  and  _360
REMARK  150  A    between atoms: _360  and  _361
REMARK  151  A    between atoms: _360  and  _363
REMARK  152  A    between atoms: _366  and  _368
REMARK  153  A    between atoms: _368  and  _369
REMARK  154  A    between atoms: _371  and  _373
REMARK  155  A    between atoms: _373  and  _374
REMARK  156  A    between atoms: _373  and  _376
REMARK  157  A    between atoms: _376  and  _377
REMARK  158  A    between atoms: _377  and  _378
REMARK  159  A    between atoms: _378  and  _379
REMARK  160  A    between atoms: _388  and  _390
REMARK  161  A    between atoms: _390  and  _391
REMARK  162  A    between atoms: _390  and  _393
REMARK  163  A    between atoms: _393  and  _394
REMARK  164  A    between atoms: _396  and  _398
REMARK  165  A    between atoms: _398  and  _399
REMARK  166  A    between atoms: _398  and  _401
REMARK  167  A    between atoms: _401  and  _402
REMARK  168  A    between atoms: _405  and  _407
REMARK  169  A    between atoms: _407  and  _408
REMARK  170  A    between atoms: _407  and  _410
REMARK  171  A    between atoms: _410  and  _411
REMARK  172  A    between atoms: _416  and  _417
REMARK  173  A    between atoms: _419  and  _421
REMARK  174  A    between atoms: _421  and  _422
REMARK  175  A    between atoms: _421  and  _424
REMARK  176  A    between atoms: _424  and  _425
REMARK  177  A    between atoms: _428  and  _430
REMARK  178  A    between atoms: _430  and  _431
REMARK  179  A    between atoms: _434  and  _436
REMARK  180  A    between atoms: _436  and  _437
REMARK  181  A    between atoms: _436  and  _439
REMARK  182  A    between atoms: _439  and  _440
REMARK  183  A    between atoms: _443  and  _445
REMARK  184  A    between atoms: _445  and  _446
REMARK  185  A    between atoms: _445  and  _448
REMARK  186  A    between atoms: _448  and  _449
REMARK  187  A    between atoms: _453  and  _454
REMARK  188  A    between atoms: _459  and  _461
REMARK  189  A    between atoms: _461  and  _462
REMARK  190  A    between atoms: _461  and  _464
REMARK  191  A    between atoms: _464  and  _465
REMARK  192  A    between atoms: _465  and  _466
REMARK  193  A    between atoms: _469  and  _471
REMARK  194  A    between atoms: _471  and  _472
REMARK  195  A    between atoms: _471  and  _474
REMARK  196  A    between atoms: _474  and  _475
REMARK  197  A    between atoms: _478  and  _480
REMARK  198  A    between atoms: _480  and  _481
REMARK  199  A    between atoms: _480  and  _483
REMARK  200  A    between atoms: _483  and  _484
REMARK  201  A    between atoms: _489  and  _491
REMARK  202  A    between atoms: _491  and  _492
REMARK  203  A    between atoms: _491  and  _494
REMARK  204  A    between atoms: _494  and  _495
REMARK  205  A    between atoms: _495  and  _496
REMARK  206  A    between atoms: _496  and  _497
REMARK  207  A    between atoms: _497  and  _498
REMARK  208  A    between atoms: _502  and  _504
REMARK  209  A    between atoms: _504  and  _505
REMARK  210  A    between atoms: _504  and  _507
REMARK  211  A    between atoms: _507  and  _508
REMARK                            x       y       z     vdW  Elec       q    Type
REMARK                         _______ _______ _______ _____ _____    ______ ____
ROOT
ATOM      1  O   HOH     1      23.586 -16.968  21.049  0.00  0.00    +0.000 OA
ENDROOT
TORSDOF 0
REMARK  Name = ../refined-set-2016/2zz1/2zz1_pocket.pdb
REMARK  211 active torsions:
REMARK  status: ('A' for Active; 'I' for Inactive)
REMARK    1  A    between atoms: _1  and  _3
REMARK    2  A    between atoms: _3  and  _4
REMARK    3  A    between atoms: _3  and  _6
REMARK    4  A    between atoms: _6  and  _7
REMARK    5  A    between atoms: _10  and  _12
REMARK    6  A    between atoms: _12  and  _13
REMARK    7  A    between atoms: _12  and  _15
REMARK    8  A    between atoms: _15  and  _16
REMARK    9  A    between atoms: _19  and  _21
REMARK   10  A    between atoms: _21  and  _22
REMARK   11  A    between atoms: _25  and  _27
REMARK   12  A    between atoms: _27  and  _28
REMARK   13  A    between atoms: _27  and  _30
REMARK   14  A    between atoms: _30  and  _31
REMARK   15  A    between atoms: _31  and  _32
REMARK   16  A    between atoms: _34  and  _36
REMARK   17  A    between atoms: _36  and  _37
REMARK   18  A    between atoms: _36  and  _39
REMARK   19  A    between atoms: _39  and  _40
REMARK   20  A    between atoms: _43  and  _45
REMARK   21  A    between atoms: _45  and  _46
REMARK   22  A    between atoms: _45  and  _48
REMARK   23  A    between atoms: _48  and  _49
REMARK   24  A    between atoms: _49  and  _50
REMARK   25  A    between atoms: _50  and  _51
REMARK   26  A    between atoms: _51  and  _52
REMARK   27  A    between atoms: _56  and  _58
REMARK   28  A    between atoms: _58  and  _59
REMARK   29  A    between atoms: _58  and  _61
REMARK   30  A    between atoms: _61  and  _62
REMARK   31  A    between atoms: _65  and  _67
REMARK   32  A    between atoms: _67  and  _68
REMARK   33  A    between atoms: _70  and  _72
REMARK   34  A    between atoms: _72  and  _73
REMARK   35  A    between atoms: _72  and  _75
REMARK   36  A    between atoms: _75  and  _76
REMARK   37  A    between atoms: _81  and  _82
REMARK   38  A    between atoms: _85  and  _86
REMARK   39  A    between atoms: _91  and  _93
REMARK   40  A    between atoms: _93  and  _94
REMARK   41  A    between atoms: _93  and  _96
REMARK   42  A    between atoms: _96  and  _97
REMARK   43  A    between atoms: _100  and  _102
REMARK   44  A    between atoms: _102  and  _103
REMARK   45  A    between atoms: _102  and  _105
REMARK   46  A    between atoms: _105  and  _106
REMARK   47  A    between atoms: _109  and  _111
REMARK   48  A    between atoms: _111  and  _112
REMARK   49  A    between atoms: _111  and  _114
REMARK   50  A    between atoms: _114  and  _115
REMARK   51  A    between atoms: _121  and  _123
REMARK   52  A    between atoms: _123  and  _124
REMARK   53  A    between atoms: _123  and  _126
REMARK   54  A    between atoms: _126  and  _127
REMARK   55  A    between atoms: _127  and  _128
REMARK   56  A    between atoms: _128  and  _129
REMARK   57  A    between atoms: _129  and  _130
REMARK   58  A    between atoms: _134  and  _136
REMARK   59  A    between atoms: _136  and  _137
REMARK   60  A    between atoms: _136  and  _139
REMARK   61  A    between atoms: _139  and  _140
REMARK   62  A    between atoms: _143  and  _145
REMARK   63  A    between atoms: _145  and  _146
REMARK   64  A    between atoms: _145  and  _148
REMARK   65  A    between atoms: _148  and  _149
REMARK   66  A    between atoms: _154  and  _156
REMARK   67  A    between atoms: _156  and  _157
REMARK   68  A    between atoms: _156  and  _159
REMARK   69  A    between atoms: _159  and  _160
REMARK   70  A    between atoms: _163  and  _165
REMARK   71  A    between atoms: _165  and  _166
REMARK   72  A    between atoms: _165  and  _168
REMARK   73  A    between atoms: _168  and  _169
REMARK   74  A    between atoms: _172  and  _174
REMARK   75  A    between atoms: _174  and  _175
REMARK   76  A    between atoms: _174  and  _177
REMARK   77  A    between atoms: _177  and  _178
REMARK   78  A    between atoms: _178  and  _179
REMARK   79  A    between atoms: _182  and  _184
REMARK   80  A    between atoms: _184  and  _185
REMARK   81  A    between atoms: _184  and  _187
REMARK   82  A    between atoms: _187  and  _188
REMARK   83  A    between atoms: _188  and  _189
REMARK   84  A    between atoms: _191  and  _193
REMARK   85  A    between atoms: _193  and  _194
REMARK   86  A    between atoms: _193  and  _196
REMARK   87  A    between atoms: _196  and  _197
REMARK   88  A    between atoms: _199  and  _201
REMARK   89  A    between atoms: _201  and  _202
REMARK   90  A    between atoms: _201  and  _204
REMARK   91  A    between atoms: _204  and  _205
REMARK   92  A    between atoms: _210  and  _212
REMARK   93  A    between atoms: _212  and  _213
REMARK   94  A    between atoms: _216  and  _218
REMARK   95  A    between atoms: _218  and  _219
REMARK   96  A    between atoms: _218  and  _221
REMARK   97  A    between atoms: _221  and  _222
REMARK   98  A    between atoms: _225  and  _227
REMARK   99  A    between atoms: _227  and  _228
REMARK  100  A    between atoms: _227  and  _230
REMARK  101  A    between atoms: _233  and  _235
REMARK  102  A    between atoms: _235  and  _236
REMARK  103  A    between atoms: _239  and  _240
REMARK  104  A    between atoms: _245  and  _247
REMARK  105  A    between atoms: _247  and  _248
REMARK  106  A    between atoms: _247  and  _250
REMARK  107  A    between atoms: _250  and  _251
REMARK  108  A    between atoms: _253  and  _255
REMARK  109  A    between atoms: _255  and  _256
REMARK  110  A    between atoms: _255  and  _258
REMARK  111  A    between atoms: _258  and  _259
REMARK  112  A    between atoms: _262  and  _264
REMARK  113  A    between atoms: _264  and  _265
REMARK  114  A    between atoms: _264  and  _267
REMARK  115  A    between atoms: _267  and  _268
REMARK  116  A    between atoms: _268  and  _269
REMARK  117  A    between atoms: _269  and  _270
REMARK  118  A    between atoms: _279  and  _281
REMARK  119  A    between atoms: _281  and  _282
REMARK  120  A    between atoms: _281  and  _284
REMARK  121  A    between atoms: _284  and  _285
REMARK  122  A    between atoms: _288  and  _290
REMARK  123  A    between atoms: _290  and  _291
REMARK  124  A    between atoms: _290  and  _293
REMARK  125  A    between atoms: _293  and  _294
REMARK  126  A    between atoms: _297  and  _298
REMARK  127  A    between atoms: _303  and  _305
REMARK  128  A    between atoms: _305  and  _306
REMARK  129  A    between atoms: _308  and  _310
REMARK  130  A    between atoms: _310  and  _311
REMARK  131  A    between atoms: _310  and  _313
REMARK  132  A    between atoms: _316  and  _318
REMARK  133  A    between atoms: _318  and  _319
REMARK  134  A    between atoms: _321  and  _323
REMARK  135  A    between atoms: _323  and  _324
REMARK  136  A    between atoms: _327  and  _329
REMARK  137  A    between atoms: _329  and  _330
REMARK  138  A    between atoms: _329  and  _332
REMARK  139  A    between atoms: _332  and  _333
REMARK  140  A    between atoms: _333  and  _334
REMARK  141  A    between atoms: _339  and  _341
REMARK  142  A    between atoms: _341  and  _342
REMARK  143  A    between atoms: _344  and  _346
REMARK  144  A    between atoms: _346  and  _347
REMARK  145  A    between atoms: _349  and  _351
REMARK  146  A    between atoms: _351  and  _352
REMARK  147  A    between atoms: _351  and  _354
REMARK  148  A    between atoms: _354  and  _355
REMARK  149  A    between atoms: _358  and  _360
REMARK  150  A    between atoms: _360  and  _361
REMARK  151  A    between atoms: _360  and  _363
REMARK  152  A    between atoms: _366  and  _368
REMARK  153  A    between atoms: _368  and  _369
REMARK  154  A    between atoms: _371  and  _373
REMARK  155  A    between atoms: _373  and  _374
REMARK  156  A    between atoms: _373  and  _376
REMARK  157  A    between atoms: _376  and  _377
REMARK  158  A    between atoms: _377  and  _378
REMARK  159  A    between atoms: _378  and  _379
REMARK  160  A    between atoms: _388  and  _390
REMARK  161  A    between atoms: _390  and  _391
REMARK  162  A    between atoms: _390  and  _393
REMARK  163  A    between atoms: _393  and  _394
REMARK  164  A    between atoms: _396  and  _398
REMARK  165  A    between atoms: _398  and  _399
REMARK  166  A    between atoms: _398  and  _401
REMARK  167  A    between atoms: _401  and  _402
REMARK  168  A    between atoms: _405  and  _407
REMARK  169  A    between atoms: _407  and  _408
REMARK  170  A    between atoms: _407  and  _410
REMARK  171  A    between atoms: _410  and  _411
REMARK  172  A    between atoms: _416  and  _417
REMARK  173  A    between atoms: _419  and  _421
REMARK  174  A    between atoms: _421  and  _422
REMARK  175  A    between atoms: _421  and  _424
REMARK  176  A    between atoms: _424  and  _425
REMARK  177  A    between atoms: _428  and  _430
REMARK  178  A    between atoms: _430  and  _431
REMARK  179  A    between atoms: _434  and  _436
REMARK  180  A    between atoms: _436  and  _437
REMARK  181  A    between atoms: _436  and  _439
REMARK  182  A    between atoms: _439  and  _440
REMARK  183  A    between atoms: _443  and  _445
REMARK  184  A    between atoms: _445  and  _446
REMARK  185  A    between atoms: _445  and  _448
REMARK  186  A    between atoms: _448  and  _449
REMARK  187  A    between atoms: _453  and  _454
REMARK  188  A    between atoms: _459  and  _461
REMARK  189  A    between atoms: _461  and  _462
REMARK  190  A    between atoms: _461  and  _464
REMARK  191  A    between atoms: _464  and  _465
REMARK  192  A    between atoms: _465  and  _466
REMARK  193  A    between atoms: _469  and  _471
REMARK  194  A    between atoms: _471  and  _472
REMARK  195  A    between atoms: _471  and  _474
REMARK  196  A    between atoms: _474  and  _475
REMARK  197  A    between atoms: _478  and  _480
REMARK  198  A    between atoms: _480  and  _481
REMARK  199  A    between atoms: _480  and  _483
REMARK  200  A    between atoms: _483  and  _484
REMARK  201  A    between atoms: _489  and  _491
REMARK  202  A    between atoms: _491  and  _492
REMARK  203  A    between atoms: _491  and  _494
REMARK  204  A    between atoms: _494  and  _495
REMARK  205  A    between atoms: _495  and  _496
REMARK  206  A    between atoms: _496  and  _497
REMARK  207  A    between atoms: _497  and  _498
REMARK  208  A    between atoms: _502  and  _504
REMARK  209  A    between atoms: _504  and  _505
REMARK  210  A    between atoms: _504  and  _507
REMARK  211  A    between atoms: _507  and  _508
REMARK                            x       y       z     vdW  Elec       q    Type
REMARK                         _______ _______ _______ _____ _____    ______ ____
ROOT
ATOM      1  O   HOH     1      21.915 -13.152  13.044  0.00  0.00    +0.000 OA
ENDROOT
TORSDOF 0
REMARK  Name = ../refined-set-2016/2zz1/2zz1_pocket.pdb
REMARK  211 active torsions:
REMARK  status: ('A' for Active; 'I' for Inactive)
REMARK    1  A    between atoms: _1  and  _3
REMARK    2  A    between atoms: _3  and  _4
REMARK    3  A    between atoms: _3  and  _6
REMARK    4  A    between atoms: _6  and  _7
REMARK    5  A    between atoms: _10  and  _12
REMARK    6  A    between atoms: _12  and  _13
REMARK    7  A    between atoms: _12  and  _15
REMARK    8  A    between atoms: _15  and  _16
REMARK    9  A    between atoms: _19  and  _21
REMARK   10  A    between atoms: _21  and  _22
REMARK   11  A    between atoms: _25  and  _27
REMARK   12  A    between atoms: _27  and  _28
REMARK   13  A    between atoms: _27  and  _30
REMARK   14  A    between atoms: _30  and  _31
REMARK   15  A    between atoms: _31  and  _32
REMARK   16  A    between atoms: _34  and  _36
REMARK   17  A    between atoms: _36  and  _37
REMARK   18  A    between atoms: _36  and  _39
REMARK   19  A    between atoms: _39  and  _40
REMARK   20  A    between atoms: _43  and  _45
REMARK   21  A    between atoms: _45  and  _46
REMARK   22  A    between atoms: _45  and  _48
REMARK   23  A    between atoms: _48  and  _49
REMARK   24  A    between atoms: _49  and  _50
REMARK   25  A    between atoms: _50  and  _51
REMARK   26  A    between atoms: _51  and  _52
REMARK   27  A    between atoms: _56  and  _58
REMARK   28  A    between atoms: _58  and  _59
REMARK   29  A    between atoms: _58  and  _61
REMARK   30  A    between atoms: _61  and  _62
REMARK   31  A    between atoms: _65  and  _67
REMARK   32  A    between atoms: _67  and  _68
REMARK   33  A    between atoms: _70  and  _72
REMARK   34  A    between atoms: _72  and  _73
REMARK   35  A    between atoms: _72  and  _75
REMARK   36  A    between atoms: _75  and  _76
REMARK   37  A    between atoms: _81  and  _82
REMARK   38  A    between atoms: _85  and  _86
REMARK   39  A    between atoms: _91  and  _93
REMARK   40  A    between atoms: _93  and  _94
REMARK   41  A    between atoms: _93  and  _96
REMARK   42  A    between atoms: _96  and  _97
REMARK   43  A    between atoms: _100  and  _102
REMARK   44  A    between atoms: _102  and  _103
REMARK   45  A    between atoms: _102  and  _105
REMARK   46  A    between atoms: _105  and  _106
REMARK   47  A    between atoms: _109  and  _111
REMARK   48  A    between atoms: _111  and  _112
REMARK   49  A    between atoms: _111  and  _114
REMARK   50  A    between atoms: _114  and  _115
REMARK   51  A    between atoms: _121  and  _123
REMARK   52  A    between atoms: _123  and  _124
REMARK   53  A    between atoms: _123  and  _126
REMARK   54  A    between atoms: _126  and  _127
REMARK   55  A    between atoms: _127  and  _128
REMARK   56  A    between atoms: _128  and  _129
REMARK   57  A    between atoms: _129  and  _130
REMARK   58  A    between atoms: _134  and  _136
REMARK   59  A    between atoms: _136  and  _137
REMARK   60  A    between atoms: _136  and  _139
REMARK   61  A    between atoms: _139  and  _140
REMARK   62  A    between atoms: _143  and  _145
REMARK   63  A    between atoms: _145  and  _146
REMARK   64  A    between atoms: _145  and  _148
REMARK   65  A    between atoms: _148  and  _149
REMARK   66  A    between atoms: _154  and  _156
REMARK   67  A    between atoms: _156  and  _157
REMARK   68  A    between atoms: _156  and  _159
REMARK   69  A    between atoms: _159  and  _160
REMARK   70  A    between atoms: _163  and  _165
REMARK   71  A    between atoms: _165  and  _166
REMARK   72  A    between atoms: _165  and  _168
REMARK   73  A    between atoms: _168  and  _169
REMARK   74  A    between atoms: _172  and  _174
REMARK   75  A    between atoms: _174  and  _175
REMARK   76  A    between atoms: _174  and  _177
REMARK   77  A    between atoms: _177  and  _178
REMARK   78  A    between atoms: _178  and  _179
REMARK   79  A    between atoms: _182  and  _184
REMARK   80  A    between atoms: _184  and  _185
REMARK   81  A    between atoms: _184  and  _187
REMARK   82  A    between atoms: _187  and  _188
REMARK   83  A    between atoms: _188  and  _189
REMARK   84  A    between atoms: _191  and  _193
REMARK   85  A    between atoms: _193  and  _194
REMARK   86  A    between atoms: _193  and  _196
REMARK   87  A    between atoms: _196  and  _197
REMARK   88  A    between atoms: _199  and  _201
REMARK   89  A    between atoms: _201  and  _202
REMARK   90  A    between atoms: _201  and  _204
REMARK   91  A    between atoms: _204  and  _205
REMARK   92  A    between atoms: _210  and  _212
REMARK   93  A    between atoms: _212  and  _213
REMARK   94  A    between atoms: _216  and  _218
REMARK   95  A    between atoms: _218  and  _219
REMARK   96  A    between atoms: _218  and  _221
REMARK   97  A    between atoms: _221  and  _222
REMARK   98  A    between atoms: _225  and  _227
REMARK   99  A    between atoms: _227  and  _228
REMARK  100  A    between atoms: _227  and  _230
REMARK  101  A    between atoms: _233  and  _235
REMARK  102  A    between atoms: _235  and  _236
REMARK  103  A    between atoms: _239  and  _240
REMARK  104  A    between atoms: _245  and  _247
REMARK  105  A    between atoms: _247  and  _248
REMARK  106  A    between atoms: _247  and  _250
REMARK  107  A    between atoms: _250  and  _251
REMARK  108  A    between atoms: _253  and  _255
REMARK  109  A    between atoms: _255  and  _256
REMARK  110  A    between atoms: _255  and  _258
REMARK  111  A    between atoms: _258  and  _259
REMARK  112  A    between atoms: _262  and  _264
REMARK  113  A    between atoms: _264  and  _265
REMARK  114  A    between atoms: _264  and  _267
REMARK  115  A    between atoms: _267  and  _268
REMARK  116  A    between atoms: _268  and  _269
REMARK  117  A    between atoms: _269  and  _270
REMARK  118  A    between atoms: _279  and  _281
REMARK  119  A    between atoms: _281  and  _282
REMARK  120  A    between atoms: _281  and  _284
REMARK  121  A    between atoms: _284  and  _285
REMARK  122  A    between atoms: _288  and  _290
REMARK  123  A    between atoms: _290  and  _291
REMARK  124  A    between atoms: _290  and  _293
REMARK  125  A    between atoms: _293  and  _294
REMARK  126  A    between atoms: _297  and  _298
REMARK  127  A    between atoms: _303  and  _305
REMARK  128  A    between atoms: _305  and  _306
REMARK  129  A    between atoms: _308  and  _310
REMARK  130  A    between atoms: _310  and  _311
REMARK  131  A    between atoms: _310  and  _313
REMARK  132  A    between atoms: _316  and  _318
REMARK  133  A    between atoms: _318  and  _319
REMARK  134  A    between atoms: _321  and  _323
REMARK  135  A    between atoms: _323  and  _324
REMARK  136  A    between atoms: _327  and  _329
REMARK  137  A    between atoms: _329  and  _330
REMARK  138  A    between atoms: _329  and  _332
REMARK  139  A    between atoms: _332  and  _333
REMARK  140  A    between atoms: _333  and  _334
REMARK  141  A    between atoms: _339  and  _341
REMARK  142  A    between atoms: _341  and  _342
REMARK  143  A    between atoms: _344  and  _346
REMARK  144  A    between atoms: _346  and  _347
REMARK  145  A    between atoms: _349  and  _351
REMARK  146  A    between atoms: _351  and  _352
REMARK  147  A    between atoms: _351  and  _354
REMARK  148  A    between atoms: _354  and  _355
REMARK  149  A    between atoms: _358  and  _360
REMARK  150  A    between atoms: _360  and  _361
REMARK  151  A    between atoms: _360  and  _363
REMARK  152  A    between atoms: _366  and  _368
REMARK  153  A    between atoms: _368  and  _369
REMARK  154  A    between atoms: _371  and  _373
REMARK  155  A    between atoms: _373  and  _374
REMARK  156  A    between atoms: _373  and  _376
REMARK  157  A    between atoms: _376  and  _377
REMARK  158  A    between atoms: _377  and  _378
REMARK  159  A    between atoms: _378  and  _379
REMARK  160  A    between atoms: _388  and  _390
REMARK  161  A    between atoms: _390  and  _391
REMARK  162  A    between atoms: _390  and  _393
REMARK  163  A    between atoms: _393  and  _394
REMARK  164  A    between atoms: _396  and  _398
REMARK  165  A    between atoms: _398  and  _399
REMARK  166  A    between atoms: _398  and  _401
REMARK  167  A    between atoms: _401  and  _402
REMARK  168  A    between atoms: _405  and  _407
REMARK  169  A    between atoms: _407  and  _408
REMARK  170  A    between atoms: _407  and  _410
REMARK  171  A    between atoms: _410  and  _411
REMARK  172  A    between atoms: _416  and  _417
REMARK  173  A    between atoms: _419  and  _421
REMARK  174  A    between atoms: _421  and  _422
REMARK  175  A    between atoms: _421  and  _424
REMARK  176  A    between atoms: _424  and  _425
REMARK  177  A    between atoms: _428  and  _430
REMARK  178  A    between atoms: _430  and  _431
REMARK  179  A    between atoms: _434  and  _436
REMARK  180  A    between atoms: _436  and  _437
REMARK  181  A    between atoms: _436  and  _439
REMARK  182  A    between atoms: _439  and  _440
REMARK  183  A    between atoms: _443  and  _445
REMARK  184  A    between atoms: _445  and  _446
REMARK  185  A    between atoms: _445  and  _448
REMARK  186  A    between atoms: _448  and  _449
REMARK  187  A    between atoms: _453  and  _454
REMARK  188  A    between atoms: _459  and  _461
REMARK  189  A    between atoms: _461  and  _462
REMARK  190  A    between atoms: _461  and  _464
REMARK  191  A    between atoms: _464  and  _465
REMARK  192  A    between atoms: _465  and  _466
REMARK  193  A    between atoms: _469  and  _471
REMARK  194  A    between atoms: _471  and  _472
REMARK  195  A    between atoms: _471  and  _474
REMARK  196  A    between atoms: _474  and  _475
REMARK  197  A    between atoms: _478  and  _480
REMARK  198  A    between atoms: _480  and  _481
REMARK  199  A    between atoms: _480  and  _483
REMARK  200  A    between atoms: _483  and  _484
REMARK  201  A    between atoms: _489  and  _491
REMARK  202  A    between atoms: _491  and  _492
REMARK  203  A    between atoms: _491  and  _494
REMARK  204  A    between atoms: _494  and  _495
REMARK  205  A    between atoms: _495  and  _496
REMARK  206  A    between atoms: _496  and  _497
REMARK  207  A    between atoms: _497  and  _498
REMARK  208  A    between atoms: _502  and  _504
REMARK  209  A    between atoms: _504  and  _505
REMARK  210  A    between atoms: _504  and  _507
REMARK  211  A    between atoms: _507  and  _508
REMARK                            x       y       z     vdW  Elec       q    Type
REMARK                         _______ _______ _______ _____ _____    ______ ____
ROOT
ATOM      1  O   HOH     1      30.414 -10.467  12.252  0.00  0.00    +0.000 OA
ENDROOT
TORSDOF 0
REMARK  Name = ../refined-set-2016/2zz1/2zz1_pocket.pdb
REMARK  211 active torsions:
REMARK  status: ('A' for Active; 'I' for Inactive)
REMARK    1  A    between atoms: _1  and  _3
REMARK    2  A    between atoms: _3  and  _4
REMARK    3  A    between atoms: _3  and  _6
REMARK    4  A    between atoms: _6  and  _7
REMARK    5  A    between atoms: _10  and  _12
REMARK    6  A    between atoms: _12  and  _13
REMARK    7  A    between atoms: _12  and  _15
REMARK    8  A    between atoms: _15  and  _16
REMARK    9  A    between atoms: _19  and  _21
REMARK   10  A    between atoms: _21  and  _22
REMARK   11  A    between atoms: _25  and  _27
REMARK   12  A    between atoms: _27  and  _28
REMARK   13  A    between atoms: _27  and  _30
REMARK   14  A    between atoms: _30  and  _31
REMARK   15  A    between atoms: _31  and  _32
REMARK   16  A    between atoms: _34  and  _36
REMARK   17  A    between atoms: _36  and  _37
REMARK   18  A    between atoms: _36  and  _39
REMARK   19  A    between atoms: _39  and  _40
REMARK   20  A    between atoms: _43  and  _45
REMARK   21  A    between atoms: _45  and  _46
REMARK   22  A    between atoms: _45  and  _48
REMARK   23  A    between atoms: _48  and  _49
REMARK   24  A    between atoms: _49  and  _50
REMARK   25  A    between atoms: _50  and  _51
REMARK   26  A    between atoms: _51  and  _52
REMARK   27  A    between atoms: _56  and  _58
REMARK   28  A    between atoms: _58  and  _59
REMARK   29  A    between atoms: _58  and  _61
REMARK   30  A    between atoms: _61  and  _62
REMARK   31  A    between atoms: _65  and  _67
REMARK   32  A    between atoms: _67  and  _68
REMARK   33  A    between atoms: _70  and  _72
REMARK   34  A    between atoms: _72  and  _73
REMARK   35  A    between atoms: _72  and  _75
REMARK   36  A    between atoms: _75  and  _76
REMARK   37  A    between atoms: _81  and  _82
REMARK   38  A    between atoms: _85  and  _86
REMARK   39  A    between atoms: _91  and  _93
REMARK   40  A    between atoms: _93  and  _94
REMARK   41  A    between atoms: _93  and  _96
REMARK   42  A    between atoms: _96  and  _97
REMARK   43  A    between atoms: _100  and  _102
REMARK   44  A    between atoms: _102  and  _103
REMARK   45  A    between atoms: _102  and  _105
REMARK   46  A    between atoms: _105  and  _106
REMARK   47  A    between atoms: _109  and  _111
REMARK   48  A    between atoms: _111  and  _112
REMARK   49  A    between atoms: _111  and  _114
REMARK   50  A    between atoms: _114  and  _115
REMARK   51  A    between atoms: _121  and  _123
REMARK   52  A    between atoms: _123  and  _124
REMARK   53  A    between atoms: _123  and  _126
REMARK   54  A    between atoms: _126  and  _127
REMARK   55  A    between atoms: _127  and  _128
REMARK   56  A    between atoms: _128  and  _129
REMARK   57  A    between atoms: _129  and  _130
REMARK   58  A    between atoms: _134  and  _136
REMARK   59  A    between atoms: _136  and  _137
REMARK   60  A    between atoms: _136  and  _139
REMARK   61  A    between atoms: _139  and  _140
REMARK   62  A    between atoms: _143  and  _145
REMARK   63  A    between atoms: _145  and  _146
REMARK   64  A    between atoms: _145  and  _148
REMARK   65  A    between atoms: _148  and  _149
REMARK   66  A    between atoms: _154  and  _156
REMARK   67  A    between atoms: _156  and  _157
REMARK   68  A    between atoms: _156  and  _159
REMARK   69  A    between atoms: _159  and  _160
REMARK   70  A    between atoms: _163  and  _165
REMARK   71  A    between atoms: _165  and  _166
REMARK   72  A    between atoms: _165  and  _168
REMARK   73  A    between atoms: _168  and  _169
REMARK   74  A    between atoms: _172  and  _174
REMARK   75  A    between atoms: _174  and  _175
REMARK   76  A    between atoms: _174  and  _177
REMARK   77  A    between atoms: _177  and  _178
REMARK   78  A    between atoms: _178  and  _179
REMARK   79  A    between atoms: _182  and  _184
REMARK   80  A    between atoms: _184  and  _185
REMARK   81  A    between atoms: _184  and  _187
REMARK   82  A    between atoms: _187  and  _188
REMARK   83  A    between atoms: _188  and  _189
REMARK   84  A    between atoms: _191  and  _193
REMARK   85  A    between atoms: _193  and  _194
REMARK   86  A    between atoms: _193  and  _196
REMARK   87  A    between atoms: _196  and  _197
REMARK   88  A    between atoms: _199  and  _201
REMARK   89  A    between atoms: _201  and  _202
REMARK   90  A    between atoms: _201  and  _204
REMARK   91  A    between atoms: _204  and  _205
REMARK   92  A    between atoms: _210  and  _212
REMARK   93  A    between atoms: _212  and  _213
REMARK   94  A    between atoms: _216  and  _218
REMARK   95  A    between atoms: _218  and  _219
REMARK   96  A    between atoms: _218  and  _221
REMARK   97  A    between atoms: _221  and  _222
REMARK   98  A    between atoms: _225  and  _227
REMARK   99  A    between atoms: _227  and  _228
REMARK  100  A    between atoms: _227  and  _230
REMARK  101  A    between atoms: _233  and  _235
REMARK  102  A    between atoms: _235  and  _236
REMARK  103  A    between atoms: _239  and  _240
REMARK  104  A    between atoms: _245  and  _247
REMARK  105  A    between atoms: _247  and  _248
REMARK  106  A    between atoms: _247  and  _250
REMARK  107  A    between atoms: _250  and  _251
REMARK  108  A    between atoms: _253  and  _255
REMARK  109  A    between atoms: _255  and  _256
REMARK  110  A    between atoms: _255  and  _258
REMARK  111  A    between atoms: _258  and  _259
REMARK  112  A    between atoms: _262  and  _264
REMARK  113  A    between atoms: _264  and  _265
REMARK  114  A    between atoms: _264  and  _267
REMARK  115  A    between atoms: _267  and  _268
REMARK  116  A    between atoms: _268  and  _269
REMARK  117  A    between atoms: _269  and  _270
REMARK  118  A    between atoms: _279  and  _281
REMARK  119  A    between atoms: _281  and  _282
REMARK  120  A    between atoms: _281  and  _284
REMARK  121  A    between atoms: _284  and  _285
REMARK  122  A    between atoms: _288  and  _290
REMARK  123  A    between atoms: _290  and  _291
REMARK  124  A    between atoms: _290  and  _293
REMARK  125  A    between atoms: _293  and  _294
REMARK  126  A    between atoms: _297  and  _298
REMARK  127  A    between atoms: _303  and  _305
REMARK  128  A    between atoms: _305  and  _306
REMARK  129  A    between atoms: _308  and  _310
REMARK  130  A    between atoms: _310  and  _311
REMARK  131  A    between atoms: _310  and  _313
REMARK  132  A    between atoms: _316  and  _318
REMARK  133  A    between atoms: _318  and  _319
REMARK  134  A    between atoms: _321  and  _323
REMARK  135  A    between atoms: _323  and  _324
REMARK  136  A    between atoms: _327  and  _329
REMARK  137  A    between atoms: _329  and  _330
REMARK  138  A    between atoms: _329  and  _332
REMARK  139  A    between atoms: _332  and  _333
REMARK  140  A    between atoms: _333  and  _334
REMARK  141  A    between atoms: _339  and  _341
REMARK  142  A    between atoms: _341  and  _342
REMARK  143  A    between atoms: _344  and  _346
REMARK  144  A    between atoms: _346  and  _347
REMARK  145  A    between atoms: _349  and  _351
REMARK  146  A    between atoms: _351  and  _352
REMARK  147  A    between atoms: _351  and  _354
REMARK  148  A    between atoms: _354  and  _355
REMARK  149  A    between atoms: _358  and  _360
REMARK  150  A    between atoms: _360  and  _361
REMARK  151  A    between atoms: _360  and  _363
REMARK  152  A    between atoms: _366  and  _368
REMARK  153  A    between atoms: _368  and  _369
REMARK  154  A    between atoms: _371  and  _373
REMARK  155  A    between atoms: _373  and  _374
REMARK  156  A    between atoms: _373  and  _376
REMARK  157  A    between atoms: _376  and  _377
REMARK  158  A    between atoms: _377  and  _378
REMARK  159  A    between atoms: _378  and  _379
REMARK  160  A    between atoms: _388  and  _390
REMARK  161  A    between atoms: _390  and  _391
REMARK  162  A    between atoms: _390  and  _393
REMARK  163  A    between atoms: _393  and  _394
REMARK  164  A    between atoms: _396  and  _398
REMARK  165  A    between atoms: _398  and  _399
REMARK  166  A    between atoms: _398  and  _401
REMARK  167  A    between atoms: _401  and  _402
REMARK  168  A    between atoms: _405  and  _407
REMARK  169  A    between atoms: _407  and  _408
REMARK  170  A    between atoms: _407  and  _410
REMARK  171  A    between atoms: _410  and  _411
REMARK  172  A    between atoms: _416  and  _417
REMARK  173  A    between atoms: _419  and  _421
REMARK  174  A    between atoms: _421  and  _422
REMARK  175  A    between atoms: _421  and  _424
REMARK  176  A    between atoms: _424  and  _425
REMARK  177  A    between atoms: _428  and  _430
REMARK  178  A    between atoms: _430  and  _431
REMARK  179  A    between atoms: _434  and  _436
REMARK  180  A    between atoms: _436  and  _437
REMARK  181  A    between atoms: _436  and  _439
REMARK  182  A    between atoms: _439  and  _440
REMARK  183  A    between atoms: _443  and  _445
REMARK  184  A    between atoms: _445  and  _446
REMARK  185  A    between atoms: _445  and  _448
REMARK  186  A    between atoms: _448  and  _449
REMARK  187  A    between atoms: _453  and  _454
REMARK  188  A    between atoms: _459  and  _461
REMARK  189  A    between atoms: _461  and  _462
REMARK  190  A    between atoms: _461  and  _464
REMARK  191  A    between atoms: _464  and  _465
REMARK  192  A    between atoms: _465  and  _466
REMARK  193  A    between atoms: _469  and  _471
REMARK  194  A    between atoms: _471  and  _472
REMARK  195  A    between atoms: _471  and  _474
REMARK  196  A    between atoms: _474  and  _475
REMARK  197  A    between atoms: _478  and  _480
REMARK  198  A    between atoms: _480  and  _481
REMARK  199  A    between atoms: _480  and  _483
REMARK  200  A    between atoms: _483  and  _484
REMARK  201  A    between atoms: _489  and  _491
REMARK  202  A    between atoms: _491  and  _492
REMARK  203  A    between atoms: _491  and  _494
REMARK  204  A    between atoms: _494  and  _495
REMARK  205  A    between atoms: _495  and  _496
REMARK  206  A    between atoms: _496  and  _497
REMARK  207  A    between atoms: _497  and  _498
REMARK  208  A    between atoms: _502  and  _504
REMARK  209  A    between atoms: _504  and  _505
REMARK  210  A    between atoms: _504  and  _507
REMARK  211  A    between atoms: _507  and  _508
REMARK                            x       y       z     vdW  Elec       q    Type
REMARK                         _______ _______ _______ _____ _____    ______ ____
ROOT
ATOM      1  O   HOH     1      28.427 -10.415   8.998  0.00  0.00    +0.000 OA
ENDROOT
TORSDOF 0
REMARK  Name = ../refined-set-2016/2zz1/2zz1_pocket.pdb
REMARK  211 active torsions:
REMARK  status: ('A' for Active; 'I' for Inactive)
REMARK    1  A    between atoms: _1  and  _3
REMARK    2  A    between atoms: _3  and  _4
REMARK    3  A    between atoms: _3  and  _6
REMARK    4  A    between atoms: _6  and  _7
REMARK    5  A    between atoms: _10  and  _12
REMARK    6  A    between atoms: _12  and  _13
REMARK    7  A    between atoms: _12  and  _15
REMARK    8  A    between atoms: _15  and  _16
REMARK    9  A    between atoms: _19  and  _21
REMARK   10  A    between atoms: _21  and  _22
REMARK   11  A    between atoms: _25  and  _27
REMARK   12  A    between atoms: _27  and  _28
REMARK   13  A    between atoms: _27  and  _30
REMARK   14  A    between atoms: _30  and  _31
REMARK   15  A    between atoms: _31  and  _32
REMARK   16  A    between atoms: _34  and  _36
REMARK   17  A    between atoms: _36  and  _37
REMARK   18  A    between atoms: _36  and  _39
REMARK   19  A    between atoms: _39  and  _40
REMARK   20  A    between atoms: _43  and  _45
REMARK   21  A    between atoms: _45  and  _46
REMARK   22  A    between atoms: _45  and  _48
REMARK   23  A    between atoms: _48  and  _49
REMARK   24  A    between atoms: _49  and  _50
REMARK   25  A    between atoms: _50  and  _51
REMARK   26  A    between atoms: _51  and  _52
REMARK   27  A    between atoms: _56  and  _58
REMARK   28  A    between atoms: _58  and  _59
REMARK   29  A    between atoms: _58  and  _61
REMARK   30  A    between atoms: _61  and  _62
REMARK   31  A    between atoms: _65  and  _67
REMARK   32  A    between atoms: _67  and  _68
REMARK   33  A    between atoms: _70  and  _72
REMARK   34  A    between atoms: _72  and  _73
REMARK   35  A    between atoms: _72  and  _75
REMARK   36  A    between atoms: _75  and  _76
REMARK   37  A    between atoms: _81  and  _82
REMARK   38  A    between atoms: _85  and  _86
REMARK   39  A    between atoms: _91  and  _93
REMARK   40  A    between atoms: _93  and  _94
REMARK   41  A    between atoms: _93  and  _96
REMARK   42  A    between atoms: _96  and  _97
REMARK   43  A    between atoms: _100  and  _102
REMARK   44  A    between atoms: _102  and  _103
REMARK   45  A    between atoms: _102  and  _105
REMARK   46  A    between atoms: _105  and  _106
REMARK   47  A    between atoms: _109  and  _111
REMARK   48  A    between atoms: _111  and  _112
REMARK   49  A    between atoms: _111  and  _114
REMARK   50  A    between atoms: _114  and  _115
REMARK   51  A    between atoms: _121  and  _123
REMARK   52  A    between atoms: _123  and  _124
REMARK   53  A    between atoms: _123  and  _126
REMARK   54  A    between atoms: _126  and  _127
REMARK   55  A    between atoms: _127  and  _128
REMARK   56  A    between atoms: _128  and  _129
REMARK   57  A    between atoms: _129  and  _130
REMARK   58  A    between atoms: _134  and  _136
REMARK   59  A    between atoms: _136  and  _137
REMARK   60  A    between atoms: _136  and  _139
REMARK   61  A    between atoms: _139  and  _140
REMARK   62  A    between atoms: _143  and  _145
REMARK   63  A    between atoms: _145  and  _146
REMARK   64  A    between atoms: _145  and  _148
REMARK   65  A    between atoms: _148  and  _149
REMARK   66  A    between atoms: _154  and  _156
REMARK   67  A    between atoms: _156  and  _157
REMARK   68  A    between atoms: _156  and  _159
REMARK   69  A    between atoms: _159  and  _160
REMARK   70  A    between atoms: _163  and  _165
REMARK   71  A    between atoms: _165  and  _166
REMARK   72  A    between atoms: _165  and  _168
REMARK   73  A    between atoms: _168  and  _169
REMARK   74  A    between atoms: _172  and  _174
REMARK   75  A    between atoms: _174  and  _175
REMARK   76  A    between atoms: _174  and  _177
REMARK   77  A    between atoms: _177  and  _178
REMARK   78  A    between atoms: _178  and  _179
REMARK   79  A    between atoms: _182  and  _184
REMARK   80  A    between atoms: _184  and  _185
REMARK   81  A    between atoms: _184  and  _187
REMARK   82  A    between atoms: _187  and  _188
REMARK   83  A    between atoms: _188  and  _189
REMARK   84  A    between atoms: _191  and  _193
REMARK   85  A    between atoms: _193  and  _194
REMARK   86  A    between atoms: _193  and  _196
REMARK   87  A    between atoms: _196  and  _197
REMARK   88  A    between atoms: _199  and  _201
REMARK   89  A    between atoms: _201  and  _202
REMARK   90  A    between atoms: _201  and  _204
REMARK   91  A    between atoms: _204  and  _205
REMARK   92  A    between atoms: _210  and  _212
REMARK   93  A    between atoms: _212  and  _213
REMARK   94  A    between atoms: _216  and  _218
REMARK   95  A    between atoms: _218  and  _219
REMARK   96  A    between atoms: _218  and  _221
REMARK   97  A    between atoms: _221  and  _222
REMARK   98  A    between atoms: _225  and  _227
REMARK   99  A    between atoms: _227  and  _228
REMARK  100  A    between atoms: _227  and  _230
REMARK  101  A    between atoms: _233  and  _235
REMARK  102  A    between atoms: _235  and  _236
REMARK  103  A    between atoms: _239  and  _240
REMARK  104  A    between atoms: _245  and  _247
REMARK  105  A    between atoms: _247  and  _248
REMARK  106  A    between atoms: _247  and  _250
REMARK  107  A    between atoms: _250  and  _251
REMARK  108  A    between atoms: _253  and  _255
REMARK  109  A    between atoms: _255  and  _256
REMARK  110  A    between atoms: _255  and  _258
REMARK  111  A    between atoms: _258  and  _259
REMARK  112  A    between atoms: _262  and  _264
REMARK  113  A    between atoms: _264  and  _265
REMARK  114  A    between atoms: _264  and  _267
REMARK  115  A    between atoms: _267  and  _268
REMARK  116  A    between atoms: _268  and  _269
REMARK  117  A    between atoms: _269  and  _270
REMARK  118  A    between atoms: _279  and  _281
REMARK  119  A    between atoms: _281  and  _282
REMARK  120  A    between atoms: _281  and  _284
REMARK  121  A    between atoms: _284  and  _285
REMARK  122  A    between atoms: _288  and  _290
REMARK  123  A    between atoms: _290  and  _291
REMARK  124  A    between atoms: _290  and  _293
REMARK  125  A    between atoms: _293  and  _294
REMARK  126  A    between atoms: _297  and  _298
REMARK  127  A    between atoms: _303  and  _305
REMARK  128  A    between atoms: _305  and  _306
REMARK  129  A    between atoms: _308  and  _310
REMARK  130  A    between atoms: _310  and  _311
REMARK  131  A    between atoms: _310  and  _313
REMARK  132  A    between atoms: _316  and  _318
REMARK  133  A    between atoms: _318  and  _319
REMARK  134  A    between atoms: _321  and  _323
REMARK  135  A    between atoms: _323  and  _324
REMARK  136  A    between atoms: _327  and  _329
REMARK  137  A    between atoms: _329  and  _330
REMARK  138  A    between atoms: _329  and  _332
REMARK  139  A    between atoms: _332  and  _333
REMARK  140  A    between atoms: _333  and  _334
REMARK  141  A    between atoms: _339  and  _341
REMARK  142  A    between atoms: _341  and  _342
REMARK  143  A    between atoms: _344  and  _346
REMARK  144  A    between atoms: _346  and  _347
REMARK  145  A    between atoms: _349  and  _351
REMARK  146  A    between atoms: _351  and  _352
REMARK  147  A    between atoms: _351  and  _354
REMARK  148  A    between atoms: _354  and  _355
REMARK  149  A    between atoms: _358  and  _360
REMARK  150  A    between atoms: _360  and  _361
REMARK  151  A    between atoms: _360  and  _363
REMARK  152  A    between atoms: _366  and  _368
REMARK  153  A    between atoms: _368  and  _369
REMARK  154  A    between atoms: _371  and  _373
REMARK  155  A    between atoms: _373  and  _374
REMARK  156  A    between atoms: _373  and  _376
REMARK  157  A    between atoms: _376  and  _377
REMARK  158  A    between atoms: _377  and  _378
REMARK  159  A    between atoms: _378  and  _379
REMARK  160  A    between atoms: _388  and  _390
REMARK  161  A    between atoms: _390  and  _391
REMARK  162  A    between atoms: _390  and  _393
REMARK  163  A    between atoms: _393  and  _394
REMARK  164  A    between atoms: _396  and  _398
REMARK  165  A    between atoms: _398  and  _399
REMARK  166  A    between atoms: _398  and  _401
REMARK  167  A    between atoms: _401  and  _402
REMARK  168  A    between atoms: _405  and  _407
REMARK  169  A    between atoms: _407  and  _408
REMARK  170  A    between atoms: _407  and  _410
REMARK  171  A    between atoms: _410  and  _411
REMARK  172  A    between atoms: _416  and  _417
REMARK  173  A    between atoms: _419  and  _421
REMARK  174  A    between atoms: _421  and  _422
REMARK  175  A    between atoms: _421  and  _424
REMARK  176  A    between atoms: _424  and  _425
REMARK  177  A    between atoms: _428  and  _430
REMARK  178  A    between atoms: _430  and  _431
REMARK  179  A    between atoms: _434  and  _436
REMARK  180  A    between atoms: _436  and  _437
REMARK  181  A    between atoms: _436  and  _439
REMARK  182  A    between atoms: _439  and  _440
REMARK  183  A    between atoms: _443  and  _445
REMARK  184  A    between atoms: _445  and  _446
REMARK  185  A    between atoms: _445  and  _448
REMARK  186  A    between atoms: _448  and  _449
REMARK  187  A    between atoms: _453  and  _454
REMARK  188  A    between atoms: _459  and  _461
REMARK  189  A    between atoms: _461  and  _462
REMARK  190  A    between atoms: _461  and  _464
REMARK  191  A    between atoms: _464  and  _465
REMARK  192  A    between atoms: _465  and  _466
REMARK  193  A    between atoms: _469  and  _471
REMARK  194  A    between atoms: _471  and  _472
REMARK  195  A    between atoms: _471  and  _474
REMARK  196  A    between atoms: _474  and  _475
REMARK  197  A    between atoms: _478  and  _480
REMARK  198  A    between atoms: _480  and  _481
REMARK  199  A    between atoms: _480  and  _483
REMARK  200  A    between atoms: _483  and  _484
REMARK  201  A    between atoms: _489  and  _491
REMARK  202  A    between atoms: _491  and  _492
REMARK  203  A    between atoms: _491  and  _494
REMARK  204  A    between atoms: _494  and  _495
REMARK  205  A    between atoms: _495  and  _496
REMARK  206  A    between atoms: _496  and  _497
REMARK  207  A    between atoms: _497  and  _498
REMARK  208  A    between atoms: _502  and  _504
REMARK  209  A    between atoms: _504  and  _505
REMARK  210  A    between atoms: _504  and  _507
REMARK  211  A    between atoms: _507  and  _508
REMARK                            x       y       z     vdW  Elec       q    Type
REMARK                         _______ _______ _______ _____ _____    ______ ____
ROOT
ATOM      1  O   HOH     1      17.147 -10.163   9.818  0.00  0.00    +0.000 OA
ENDROOT
TORSDOF 0
REMARK  Name = ../refined-set-2016/2zz1/2zz1_pocket.pdb
REMARK  211 active torsions:
REMARK  status: ('A' for Active; 'I' for Inactive)
REMARK    1  A    between atoms: _1  and  _3
REMARK    2  A    between atoms: _3  and  _4
REMARK    3  A    between atoms: _3  and  _6
REMARK    4  A    between atoms: _6  and  _7
REMARK    5  A    between atoms: _10  and  _12
REMARK    6  A    between atoms: _12  and  _13
REMARK    7  A    between atoms: _12  and  _15
REMARK    8  A    between atoms: _15  and  _16
REMARK    9  A    between atoms: _19  and  _21
REMARK   10  A    between atoms: _21  and  _22
REMARK   11  A    between atoms: _25  and  _27
REMARK   12  A    between atoms: _27  and  _28
REMARK   13  A    between atoms: _27  and  _30
REMARK   14  A    between atoms: _30  and  _31
REMARK   15  A    between atoms: _31  and  _32
REMARK   16  A    between atoms: _34  and  _36
REMARK   17  A    between atoms: _36  and  _37
REMARK   18  A    between atoms: _36  and  _39
REMARK   19  A    between atoms: _39  and  _40
REMARK   20  A    between atoms: _43  and  _45
REMARK   21  A    between atoms: _45  and  _46
REMARK   22  A    between atoms: _45  and  _48
REMARK   23  A    between atoms: _48  and  _49
REMARK   24  A    between atoms: _49  and  _50
REMARK   25  A    between atoms: _50  and  _51
REMARK   26  A    between atoms: _51  and  _52
REMARK   27  A    between atoms: _56  and  _58
REMARK   28  A    between atoms: _58  and  _59
REMARK   29  A    between atoms: _58  and  _61
REMARK   30  A    between atoms: _61  and  _62
REMARK   31  A    between atoms: _65  and  _67
REMARK   32  A    between atoms: _67  and  _68
REMARK   33  A    between atoms: _70  and  _72
REMARK   34  A    between atoms: _72  and  _73
REMARK   35  A    between atoms: _72  and  _75
REMARK   36  A    between atoms: _75  and  _76
REMARK   37  A    between atoms: _81  and  _82
REMARK   38  A    between atoms: _85  and  _86
REMARK   39  A    between atoms: _91  and  _93
REMARK   40  A    between atoms: _93  and  _94
REMARK   41  A    between atoms: _93  and  _96
REMARK   42  A    between atoms: _96  and  _97
REMARK   43  A    between atoms: _100  and  _102
REMARK   44  A    between atoms: _102  and  _103
REMARK   45  A    between atoms: _102  and  _105
REMARK   46  A    between atoms: _105  and  _106
REMARK   47  A    between atoms: _109  and  _111
REMARK   48  A    between atoms: _111  and  _112
REMARK   49  A    between atoms: _111  and  _114
REMARK   50  A    between atoms: _114  and  _115
REMARK   51  A    between atoms: _121  and  _123
REMARK   52  A    between atoms: _123  and  _124
REMARK   53  A    between atoms: _123  and  _126
REMARK   54  A    between atoms: _126  and  _127
REMARK   55  A    between atoms: _127  and  _128
REMARK   56  A    between atoms: _128  and  _129
REMARK   57  A    between atoms: _129  and  _130
REMARK   58  A    between atoms: _134  and  _136
REMARK   59  A    between atoms: _136  and  _137
REMARK   60  A    between atoms: _136  and  _139
REMARK   61  A    between atoms: _139  and  _140
REMARK   62  A    between atoms: _143  and  _145
REMARK   63  A    between atoms: _145  and  _146
REMARK   64  A    between atoms: _145  and  _148
REMARK   65  A    between atoms: _148  and  _149
REMARK   66  A    between atoms: _154  and  _156
REMARK   67  A    between atoms: _156  and  _157
REMARK   68  A    between atoms: _156  and  _159
REMARK   69  A    between atoms: _159  and  _160
REMARK   70  A    between atoms: _163  and  _165
REMARK   71  A    between atoms: _165  and  _166
REMARK   72  A    between atoms: _165  and  _168
REMARK   73  A    between atoms: _168  and  _169
REMARK   74  A    between atoms: _172  and  _174
REMARK   75  A    between atoms: _174  and  _175
REMARK   76  A    between atoms: _174  and  _177
REMARK   77  A    between atoms: _177  and  _178
REMARK   78  A    between atoms: _178  and  _179
REMARK   79  A    between atoms: _182  and  _184
REMARK   80  A    between atoms: _184  and  _185
REMARK   81  A    between atoms: _184  and  _187
REMARK   82  A    between atoms: _187  and  _188
REMARK   83  A    between atoms: _188  and  _189
REMARK   84  A    between atoms: _191  and  _193
REMARK   85  A    between atoms: _193  and  _194
REMARK   86  A    between atoms: _193  and  _196
REMARK   87  A    between atoms: _196  and  _197
REMARK   88  A    between atoms: _199  and  _201
REMARK   89  A    between atoms: _201  and  _202
REMARK   90  A    between atoms: _201  and  _204
REMARK   91  A    between atoms: _204  and  _205
REMARK   92  A    between atoms: _210  and  _212
REMARK   93  A    between atoms: _212  and  _213
REMARK   94  A    between atoms: _216  and  _218
REMARK   95  A    between atoms: _218  and  _219
REMARK   96  A    between atoms: _218  and  _221
REMARK   97  A    between atoms: _221  and  _222
REMARK   98  A    between atoms: _225  and  _227
REMARK   99  A    between atoms: _227  and  _228
REMARK  100  A    between atoms: _227  and  _230
REMARK  101  A    between atoms: _233  and  _235
REMARK  102  A    between atoms: _235  and  _236
REMARK  103  A    between atoms: _239  and  _240
REMARK  104  A    between atoms: _245  and  _247
REMARK  105  A    between atoms: _247  and  _248
REMARK  106  A    between atoms: _247  and  _250
REMARK  107  A    between atoms: _250  and  _251
REMARK  108  A    between atoms: _253  and  _255
REMARK  109  A    between atoms: _255  and  _256
REMARK  110  A    between atoms: _255  and  _258
REMARK  111  A    between atoms: _258  and  _259
REMARK  112  A    between atoms: _262  and  _264
REMARK  113  A    between atoms: _264  and  _265
REMARK  114  A    between atoms: _264  and  _267
REMARK  115  A    between atoms: _267  and  _268
REMARK  116  A    between atoms: _268  and  _269
REMARK  117  A    between atoms: _269  and  _270
REMARK  118  A    between atoms: _279  and  _281
REMARK  119  A    between atoms: _281  and  _282
REMARK  120  A    between atoms: _281  and  _284
REMARK  121  A    between atoms: _284  and  _285
REMARK  122  A    between atoms: _288  and  _290
REMARK  123  A    between atoms: _290  and  _291
REMARK  124  A    between atoms: _290  and  _293
REMARK  125  A    between atoms: _293  and  _294
REMARK  126  A    between atoms: _297  and  _298
REMARK  127  A    between atoms: _303  and  _305
REMARK  128  A    between atoms: _305  and  _306
REMARK  129  A    between atoms: _308  and  _310
REMARK  130  A    between atoms: _310  and  _311
REMARK  131  A    between atoms: _310  and  _313
REMARK  132  A    between atoms: _316  and  _318
REMARK  133  A    between atoms: _318  and  _319
REMARK  134  A    between atoms: _321  and  _323
REMARK  135  A    between atoms: _323  and  _324
REMARK  136  A    between atoms: _327  and  _329
REMARK  137  A    between atoms: _329  and  _330
REMARK  138  A    between atoms: _329  and  _332
REMARK  139  A    between atoms: _332  and  _333
REMARK  140  A    between atoms: _333  and  _334
REMARK  141  A    between atoms: _339  and  _341
REMARK  142  A    between atoms: _341  and  _342
REMARK  143  A    between atoms: _344  and  _346
REMARK  144  A    between atoms: _346  and  _347
REMARK  145  A    between atoms: _349  and  _351
REMARK  146  A    between atoms: _351  and  _352
REMARK  147  A    between atoms: _351  and  _354
REMARK  148  A    between atoms: _354  and  _355
REMARK  149  A    between atoms: _358  and  _360
REMARK  150  A    between atoms: _360  and  _361
REMARK  151  A    between atoms: _360  and  _363
REMARK  152  A    between atoms: _366  and  _368
REMARK  153  A    between atoms: _368  and  _369
REMARK  154  A    between atoms: _371  and  _373
REMARK  155  A    between atoms: _373  and  _374
REMARK  156  A    between atoms: _373  and  _376
REMARK  157  A    between atoms: _376  and  _377
REMARK  158  A    between atoms: _377  and  _378
REMARK  159  A    between atoms: _378  and  _379
REMARK  160  A    between atoms: _388  and  _390
REMARK  161  A    between atoms: _390  and  _391
REMARK  162  A    between atoms: _390  and  _393
REMARK  163  A    between atoms: _393  and  _394
REMARK  164  A    between atoms: _396  and  _398
REMARK  165  A    between atoms: _398  and  _399
REMARK  166  A    between atoms: _398  and  _401
REMARK  167  A    between atoms: _401  and  _402
REMARK  168  A    between atoms: _405  and  _407
REMARK  169  A    between atoms: _407  and  _408
REMARK  170  A    between atoms: _407  and  _410
REMARK  171  A    between atoms: _410  and  _411
REMARK  172  A    between atoms: _416  and  _417
REMARK  173  A    between atoms: _419  and  _421
REMARK  174  A    between atoms: _421  and  _422
REMARK  175  A    between atoms: _421  and  _424
REMARK  176  A    between atoms: _424  and  _425
REMARK  177  A    between atoms: _428  and  _430
REMARK  178  A    between atoms: _430  and  _431
REMARK  179  A    between atoms: _434  and  _436
REMARK  180  A    between atoms: _436  and  _437
REMARK  181  A    between atoms: _436  and  _439
REMARK  182  A    between atoms: _439  and  _440
REMARK  183  A    between atoms: _443  and  _445
REMARK  184  A    between atoms: _445  and  _446
REMARK  185  A    between atoms: _445  and  _448
REMARK  186  A    between atoms: _448  and  _449
REMARK  187  A    between atoms: _453  and  _454
REMARK  188  A    between atoms: _459  and  _461
REMARK  189  A    between atoms: _461  and  _462
REMARK  190  A    between atoms: _461  and  _464
REMARK  191  A    between atoms: _464  and  _465
REMARK  192  A    between atoms: _465  and  _466
REMARK  193  A    between atoms: _469  and  _471
REMARK  194  A    between atoms: _471  and  _472
REMARK  195  A    between atoms: _471  and  _474
REMARK  196  A    between atoms: _474  and  _475
REMARK  197  A    between atoms: _478  and  _480
REMARK  198  A    between atoms: _480  and  _481
REMARK  199  A    between atoms: _480  and  _483
REMARK  200  A    between atoms: _483  and  _484
REMARK  201  A    between atoms: _489  and  _491
REMARK  202  A    between atoms: _491  and  _492
REMARK  203  A    between atoms: _491  and  _494
REMARK  204  A    between atoms: _494  and  _495
REMARK  205  A    between atoms: _495  and  _496
REMARK  206  A    between atoms: _496  and  _497
REMARK  207  A    between atoms: _497  and  _498
REMARK  208  A    between atoms: _502  and  _504
REMARK  209  A    between atoms: _504  and  _505
REMARK  210  A    between atoms: _504  and  _507
REMARK  211  A    between atoms: _507  and  _508
REMARK                            x       y       z     vdW  Elec       q    Type
REMARK                         _______ _______ _______ _____ _____    ______ ____
ROOT
ATOM      1  O   HOH     1      19.831 -10.421   9.902  0.00  0.00    +0.000 OA
ENDROOT
TORSDOF 0
