REMARK  Name = ../refined-set-2016/3f18/3f18_pocket.pdb
REMARK  152 active torsions:
REMARK  status: ('A' for Active; 'I' for Inactive)
REMARK    1  A    between atoms: _1  and  _3
REMARK    2  A    between atoms: _3  and  _4
REMARK    3  A    between atoms: _3  and  _6
REMARK    4  A    between atoms: _6  and  _7
REMARK    5  A    between atoms: _13  and  _15
REMARK    6  A    between atoms: _15  and  _16
REMARK    7  A    between atoms: _15  and  _18
REMARK    8  A    between atoms: _18  and  _19
REMARK    9  A    between atoms: _22  and  _24
REMARK   10  A    between atoms: _24  and  _25
REMARK   11  A    between atoms: _27  and  _29
REMARK   12  A    between atoms: _29  and  _30
REMARK   13  A    between atoms: _32  and  _34
REMARK   14  A    between atoms: _34  and  _35
REMARK   15  A    between atoms: _34  and  _37
REMARK   16  A    between atoms: _35  and  _36
REMARK   17  A    between atoms: _35  and  _41
REMARK   18  A    between atoms: _36  and  CA_369
REMARK   19  A    between atoms: _37  and  _38
REMARK   20  A    between atoms: _41  and  _43
REMARK   21  A    between atoms: _43  and  _44
REMARK   22  A    between atoms: _43  and  _46
REMARK   23  A    between atoms: _46  and  _47
REMARK   24  A    between atoms: _50  and  _52
REMARK   25  A    between atoms: _52  and  _53
REMARK   26  A    between atoms: _56  and  _58
REMARK   27  A    between atoms: _58  and  _59
REMARK   28  A    between atoms: _58  and  _61
REMARK   29  A    between atoms: _61  and  _62
REMARK   30  A    between atoms: _67  and  _69
REMARK   31  A    between atoms: _69  and  _70
REMARK   32  A    between atoms: _73  and  _75
REMARK   33  A    between atoms: _75  and  _76
REMARK   34  A    between atoms: _75  and  _78
REMARK   35  A    between atoms: _78  and  _79
REMARK   36  A    between atoms: _85  and  _87
REMARK   37  A    between atoms: _87  and  _88
REMARK   38  A    between atoms: _87  and  _90
REMARK   39  A    between atoms: _90  and  _91
REMARK   40  A    between atoms: _96  and  _98
REMARK   41  A    between atoms: _98  and  _99
REMARK   42  A    between atoms: _98  and  _101
REMARK   43  A    between atoms: _101  and  _102
REMARK   44  A    between atoms: _108  and  _110
REMARK   45  A    between atoms: _110  and  _111
REMARK   46  A    between atoms: _110  and  _113
REMARK   47  A    between atoms: _113  and  _114
REMARK   48  A    between atoms: _117  and  _119
REMARK   49  A    between atoms: _119  and  _120
REMARK   50  A    between atoms: _119  and  _122
REMARK   51  A    between atoms: _122  and  _123
REMARK   52  A    between atoms: _123  and  _124
REMARK   53  A    between atoms: _124  and  _126
REMARK   54  A    between atoms: _126  and  CA_369
REMARK   55  A    between atoms: _127  and  _129
REMARK   56  A    between atoms: _129  and  _130
REMARK   57  A    between atoms: _129  and  _132
REMARK   58  A    between atoms: _132  and  _133
REMARK   59  A    between atoms: _143  and  _145
REMARK   60  A    between atoms: _145  and  _146
REMARK   61  A    between atoms: _145  and  _148
REMARK   62  A    between atoms: _148  and  _149
REMARK   63  A    between atoms: _152  and  _154
REMARK   64  A    between atoms: _154  and  _155
REMARK   65  A    between atoms: _154  and  _157
REMARK   66  A    between atoms: _157  and  _158
REMARK   67  A    between atoms: _163  and  _165
REMARK   68  A    between atoms: _165  and  _166
REMARK   69  A    between atoms: _165  and  _168
REMARK   70  A    between atoms: _168  and  _169
REMARK   71  A    between atoms: _172  and  _174
REMARK   72  A    between atoms: _174  and  _175
REMARK   73  A    between atoms: _174  and  _177
REMARK   74  A    between atoms: _177  and  _178
REMARK   75  A    between atoms: _184  and  _186
REMARK   76  A    between atoms: _186  and  _187
REMARK   77  A    between atoms: _186  and  _189
REMARK   78  A    between atoms: _189  and  _190
REMARK   79  A    between atoms: _193  and  _195
REMARK   80  A    between atoms: _195  and  _196
REMARK   81  A    between atoms: _195  and  _198
REMARK   82  A    between atoms: _198  and  _199
REMARK   83  A    between atoms: _202  and  _204
REMARK   84  A    between atoms: _204  and  _205
REMARK   85  A    between atoms: _208  and  _210
REMARK   86  A    between atoms: _210  and  _211
REMARK   87  A    between atoms: _210  and  _213
REMARK   88  A    between atoms: _216  and  _218
REMARK   89  A    between atoms: _218  and  _219
REMARK   90  A    between atoms: _218  and  _221
REMARK   91  A    between atoms: _221  and  _222
REMARK   92  A    between atoms: _226  and  ZN_368
REMARK   93  A    between atoms: _227  and  _229
REMARK   94  A    between atoms: _229  and  _230
REMARK   95  A    between atoms: _229  and  _232
REMARK   96  A    between atoms: _232  and  _233
REMARK   97  A    between atoms: _233  and  _234
REMARK   98  A    between atoms: _237  and  _239
REMARK   99  A    between atoms: _239  and  _240
REMARK  100  A    between atoms: _239  and  _242
REMARK  101  A    between atoms: _242  and  _243
REMARK  102  A    between atoms: _246  and  _248
REMARK  103  A    between atoms: _248  and  _249
REMARK  104  A    between atoms: _248  and  _251
REMARK  105  A    between atoms: _251  and  _252
REMARK  106  A    between atoms: _256  and  ZN_368
REMARK  107  A    between atoms: _257  and  _259
REMARK  108  A    between atoms: _259  and  _260
REMARK  109  A    between atoms: _259  and  _262
REMARK  110  A    between atoms: _262  and  _263
REMARK  111  A    between atoms: _265  and  _267
REMARK  112  A    between atoms: _267  and  _268
REMARK  113  A    between atoms: _267  and  _270
REMARK  114  A    between atoms: _270  and  _271
REMARK  115  A    between atoms: _274  and  _276
REMARK  116  A    between atoms: _276  and  _277
REMARK  117  A    between atoms: _279  and  _281
REMARK  118  A    between atoms: _281  and  _282
REMARK  119  A    between atoms: _281  and  _284
REMARK  120  A    between atoms: _284  and  _285
REMARK  121  A    between atoms: _289  and  ZN_368
REMARK  122  A    between atoms: _290  and  _292
REMARK  123  A    between atoms: _292  and  _293
REMARK  124  A    between atoms: _296  and  _298
REMARK  125  A    between atoms: _298  and  _299
REMARK  126  A    between atoms: _298  and  _301
REMARK  127  A    between atoms: _304  and  _306
REMARK  128  A    between atoms: _306  and  _307
REMARK  129  A    between atoms: _306  and  _309
REMARK  130  A    between atoms: _309  and  _310
REMARK  131  A    between atoms: _310  and  _311
REMARK  132  A    between atoms: _313  and  _315
REMARK  133  A    between atoms: _315  and  _316
REMARK  134  A    between atoms: _315  and  _318
REMARK  135  A    between atoms: _318  and  _319
REMARK  136  A    between atoms: _326  and  _327
REMARK  137  A    between atoms: _332  and  _334
REMARK  138  A    between atoms: _334  and  _335
REMARK  139  A    between atoms: _334  and  _337
REMARK  140  A    between atoms: _337  and  _338
REMARK  141  A    between atoms: _341  and  _343
REMARK  142  A    between atoms: _343  and  _344
REMARK  143  A    between atoms: _343  and  _346
REMARK  144  A    between atoms: _346  and  _347
REMARK  145  A    between atoms: _352  and  _353
REMARK  146  A    between atoms: _355  and  _357
REMARK  147  A    between atoms: _357  and  _358
REMARK  148  A    between atoms: _357  and  _360
REMARK  149  A    between atoms: _360  and  _361
REMARK  150  A    between atoms: _361  and  _362
REMARK  151  A    between atoms: _362  and  _363
REMARK  152  A    between atoms: _363  and  _364
REMARK                            x       y       z     vdW  Elec       q    Type
REMARK                         _______ _______ _______ _____ _____    ______ ____
ROOT
ATOM      1  C   PHE A   1     -24.184  -5.335 -20.507  0.00  0.00    +0.239 C 
ATOM      2  N   ASP A   2     -23.555  -6.508 -20.537  0.00  0.00    -0.298 N 
ATOM      3  H   ASP A   2     -22.806  -6.688 -19.839  0.00  0.00    +0.150 HD
ATOM      4  O   PHE A   1     -25.284  -5.136 -21.043  0.00  0.00    -0.274 OA
ENDROOT
BRANCH   1   5
ATOM      5  CA  PHE A   1     -23.445  -4.195 -19.774  0.00  0.00    +0.149 C 
BRANCH   5   6
ATOM      6  N   PHE A   1     -24.059  -2.910 -20.047  0.00  0.00    -0.238 NA
ATOM      7  H   PHE A   1     -24.723  -2.509 -19.355  0.00  0.00    +0.142 HD
ENDBRANCH   5   6
BRANCH   5   8
ATOM      8  CB  PHE A   1     -23.378  -4.439 -18.267  0.00  0.00    +0.053 C 
BRANCH   8   9
ATOM      9  CG  PHE A   1     -22.311  -3.636 -17.546  0.00  0.00    -0.020 A 
ATOM     10  CD2 PHE A   1     -22.612  -3.003 -16.341  0.00  0.00    -0.004 A 
ATOM     11  CE2 PHE A   1     -21.638  -2.278 -15.642  0.00  0.00    -0.000 A 
ATOM     12  CZ  PHE A   1     -20.353  -2.191 -16.145  0.00  0.00    -0.000 A 
ATOM     13  CE1 PHE A   1     -20.033  -2.813 -17.352  0.00  0.00    -0.000 A 
ATOM     14  CD1 PHE A   1     -21.011  -3.540 -18.045  0.00  0.00    -0.004 A 
ENDBRANCH   8   9
ENDBRANCH   5   8
ENDBRANCH   1   5
BRANCH   2  15
ATOM     15  CA  ASP A   2     -23.871  -7.554 -21.508  0.00  0.00    +0.148 C 
BRANCH  15  16
ATOM     16  C   ASP A   2     -24.185  -8.914 -20.887  0.00  0.00    +0.227 C 
ATOM     17  O   ASP A   2     -24.063  -9.947 -21.553  0.00  0.00    -0.286 OA
ENDBRANCH  15  16
BRANCH  15  18
ATOM     18  CB  ASP A   2     -22.697  -7.702 -22.481  0.00  0.00    +0.142 C 
BRANCH  18  19
ATOM     19  CG  ASP A   2     -21.363  -7.956 -21.771  0.00  0.00    +0.367 C 
ATOM     20  OD2 ASP A   2     -21.320  -7.979 -20.514  0.00  0.00    -0.246 OA
ATOM     21  OD1 ASP A   2     -20.347  -8.136 -22.477  0.00  0.00    -0.246 OA
ENDBRANCH  18  19
ENDBRANCH  15  18
ENDBRANCH   2  15
TORSDOF 8
REMARK  Name = ../refined-set-2016/3f18/3f18_pocket.pdb
REMARK  152 active torsions:
REMARK  status: ('A' for Active; 'I' for Inactive)
REMARK    1  A    between atoms: _1  and  _3
REMARK    2  A    between atoms: _3  and  _4
REMARK    3  A    between atoms: _3  and  _6
REMARK    4  A    between atoms: _6  and  _7
REMARK    5  A    between atoms: _13  and  _15
REMARK    6  A    between atoms: _15  and  _16
REMARK    7  A    between atoms: _15  and  _18
REMARK    8  A    between atoms: _18  and  _19
REMARK    9  A    between atoms: _22  and  _24
REMARK   10  A    between atoms: _24  and  _25
REMARK   11  A    between atoms: _27  and  _29
REMARK   12  A    between atoms: _29  and  _30
REMARK   13  A    between atoms: _32  and  _34
REMARK   14  A    between atoms: _34  and  _35
REMARK   15  A    between atoms: _34  and  _37
REMARK   16  A    between atoms: _35  and  _36
REMARK   17  A    between atoms: _35  and  _41
REMARK   18  A    between atoms: _36  and  CA_369
REMARK   19  A    between atoms: _37  and  _38
REMARK   20  A    between atoms: _41  and  _43
REMARK   21  A    between atoms: _43  and  _44
REMARK   22  A    between atoms: _43  and  _46
REMARK   23  A    between atoms: _46  and  _47
REMARK   24  A    between atoms: _50  and  _52
REMARK   25  A    between atoms: _52  and  _53
REMARK   26  A    between atoms: _56  and  _58
REMARK   27  A    between atoms: _58  and  _59
REMARK   28  A    between atoms: _58  and  _61
REMARK   29  A    between atoms: _61  and  _62
REMARK   30  A    between atoms: _67  and  _69
REMARK   31  A    between atoms: _69  and  _70
REMARK   32  A    between atoms: _73  and  _75
REMARK   33  A    between atoms: _75  and  _76
REMARK   34  A    between atoms: _75  and  _78
REMARK   35  A    between atoms: _78  and  _79
REMARK   36  A    between atoms: _85  and  _87
REMARK   37  A    between atoms: _87  and  _88
REMARK   38  A    between atoms: _87  and  _90
REMARK   39  A    between atoms: _90  and  _91
REMARK   40  A    between atoms: _96  and  _98
REMARK   41  A    between atoms: _98  and  _99
REMARK   42  A    between atoms: _98  and  _101
REMARK   43  A    between atoms: _101  and  _102
REMARK   44  A    between atoms: _108  and  _110
REMARK   45  A    between atoms: _110  and  _111
REMARK   46  A    between atoms: _110  and  _113
REMARK   47  A    between atoms: _113  and  _114
REMARK   48  A    between atoms: _117  and  _119
REMARK   49  A    between atoms: _119  and  _120
REMARK   50  A    between atoms: _119  and  _122
REMARK   51  A    between atoms: _122  and  _123
REMARK   52  A    between atoms: _123  and  _124
REMARK   53  A    between atoms: _124  and  _126
REMARK   54  A    between atoms: _126  and  CA_369
REMARK   55  A    between atoms: _127  and  _129
REMARK   56  A    between atoms: _129  and  _130
REMARK   57  A    between atoms: _129  and  _132
REMARK   58  A    between atoms: _132  and  _133
REMARK   59  A    between atoms: _143  and  _145
REMARK   60  A    between atoms: _145  and  _146
REMARK   61  A    between atoms: _145  and  _148
REMARK   62  A    between atoms: _148  and  _149
REMARK   63  A    between atoms: _152  and  _154
REMARK   64  A    between atoms: _154  and  _155
REMARK   65  A    between atoms: _154  and  _157
REMARK   66  A    between atoms: _157  and  _158
REMARK   67  A    between atoms: _163  and  _165
REMARK   68  A    between atoms: _165  and  _166
REMARK   69  A    between atoms: _165  and  _168
REMARK   70  A    between atoms: _168  and  _169
REMARK   71  A    between atoms: _172  and  _174
REMARK   72  A    between atoms: _174  and  _175
REMARK   73  A    between atoms: _174  and  _177
REMARK   74  A    between atoms: _177  and  _178
REMARK   75  A    between atoms: _184  and  _186
REMARK   76  A    between atoms: _186  and  _187
REMARK   77  A    between atoms: _186  and  _189
REMARK   78  A    between atoms: _189  and  _190
REMARK   79  A    between atoms: _193  and  _195
REMARK   80  A    between atoms: _195  and  _196
REMARK   81  A    between atoms: _195  and  _198
REMARK   82  A    between atoms: _198  and  _199
REMARK   83  A    between atoms: _202  and  _204
REMARK   84  A    between atoms: _204  and  _205
REMARK   85  A    between atoms: _208  and  _210
REMARK   86  A    between atoms: _210  and  _211
REMARK   87  A    between atoms: _210  and  _213
REMARK   88  A    between atoms: _216  and  _218
REMARK   89  A    between atoms: _218  and  _219
REMARK   90  A    between atoms: _218  and  _221
REMARK   91  A    between atoms: _221  and  _222
REMARK   92  A    between atoms: _226  and  ZN_368
REMARK   93  A    between atoms: _227  and  _229
REMARK   94  A    between atoms: _229  and  _230
REMARK   95  A    between atoms: _229  and  _232
REMARK   96  A    between atoms: _232  and  _233
REMARK   97  A    between atoms: _233  and  _234
REMARK   98  A    between atoms: _237  and  _239
REMARK   99  A    between atoms: _239  and  _240
REMARK  100  A    between atoms: _239  and  _242
REMARK  101  A    between atoms: _242  and  _243
REMARK  102  A    between atoms: _246  and  _248
REMARK  103  A    between atoms: _248  and  _249
REMARK  104  A    between atoms: _248  and  _251
REMARK  105  A    between atoms: _251  and  _252
REMARK  106  A    between atoms: _256  and  ZN_368
REMARK  107  A    between atoms: _257  and  _259
REMARK  108  A    between atoms: _259  and  _260
REMARK  109  A    between atoms: _259  and  _262
REMARK  110  A    between atoms: _262  and  _263
REMARK  111  A    between atoms: _265  and  _267
REMARK  112  A    between atoms: _267  and  _268
REMARK  113  A    between atoms: _267  and  _270
REMARK  114  A    between atoms: _270  and  _271
REMARK  115  A    between atoms: _274  and  _276
REMARK  116  A    between atoms: _276  and  _277
REMARK  117  A    between atoms: _279  and  _281
REMARK  118  A    between atoms: _281  and  _282
REMARK  119  A    between atoms: _281  and  _284
REMARK  120  A    between atoms: _284  and  _285
REMARK  121  A    between atoms: _289  and  ZN_368
REMARK  122  A    between atoms: _290  and  _292
REMARK  123  A    between atoms: _292  and  _293
REMARK  124  A    between atoms: _296  and  _298
REMARK  125  A    between atoms: _298  and  _299
REMARK  126  A    between atoms: _298  and  _301
REMARK  127  A    between atoms: _304  and  _306
REMARK  128  A    between atoms: _306  and  _307
REMARK  129  A    between atoms: _306  and  _309
REMARK  130  A    between atoms: _309  and  _310
REMARK  131  A    between atoms: _310  and  _311
REMARK  132  A    between atoms: _313  and  _315
REMARK  133  A    between atoms: _315  and  _316
REMARK  134  A    between atoms: _315  and  _318
REMARK  135  A    between atoms: _318  and  _319
REMARK  136  A    between atoms: _326  and  _327
REMARK  137  A    between atoms: _332  and  _334
REMARK  138  A    between atoms: _334  and  _335
REMARK  139  A    between atoms: _334  and  _337
REMARK  140  A    between atoms: _337  and  _338
REMARK  141  A    between atoms: _341  and  _343
REMARK  142  A    between atoms: _343  and  _344
REMARK  143  A    between atoms: _343  and  _346
REMARK  144  A    between atoms: _346  and  _347
REMARK  145  A    between atoms: _352  and  _353
REMARK  146  A    between atoms: _355  and  _357
REMARK  147  A    between atoms: _357  and  _358
REMARK  148  A    between atoms: _357  and  _360
REMARK  149  A    between atoms: _360  and  _361
REMARK  150  A    between atoms: _361  and  _362
REMARK  151  A    between atoms: _362  and  _363
REMARK  152  A    between atoms: _363  and  _364
REMARK                            x       y       z     vdW  Elec       q    Type
REMARK                         _______ _______ _______ _____ _____    ______ ____
ROOT
ATOM      1  C   UNK A   1     -16.768  -7.129 -16.683  0.00  0.00    +0.000 C 
ENDROOT
BRANCH   1   2
ATOM      2  C   UNK A   1     -16.994  -5.812 -15.946  0.00  0.00    +0.000 C 
ATOM      3  O   UNK A   1     -17.631  -5.775 -14.892  0.00  0.00    +0.000 OA
ATOM      4  N   ALA A   2     -16.446  -4.736 -16.507  0.00  0.00    +0.000 N 
ATOM      5  H   ALA A   2     -16.022  -4.829 -17.452  0.00  0.00    +0.000 HD
BRANCH   4   6
ATOM      6  CA  ALA A   2     -16.415  -3.436 -15.855  0.00  0.00    +0.000 C 
ATOM      7  CB  ALA A   2     -15.469  -3.464 -14.666  0.00  0.00    +0.000 C 
BRANCH   6   8
ATOM      8  C   ALA A   2     -15.941  -2.412 -16.857  0.00  0.00    +0.000 C 
ATOM      9  N   HIS A   3     -16.212  -1.142 -16.574  0.00  0.00    +0.000 N 
ATOM     10  H   HIS A   3     -16.839  -0.923 -15.773  0.00  0.00    +0.000 HD
ATOM     11  O   ALA A   2     -15.319  -2.765 -17.861  0.00  0.00    +0.000 OA
BRANCH   9  12
ATOM     12  CA  HIS A   3     -15.653  -0.048 -17.358  0.00  0.00    +0.000 C 
BRANCH  12  13
ATOM     13  C   HIS A   3     -15.541   1.187 -16.473  0.00  0.00    +0.000 C 
ATOM     14  O   HIS A   3     -16.178   1.270 -15.419  0.00  0.00    +0.000 OA
ATOM     15  N   ALA A   4     -14.711   2.134 -16.887  0.00  0.00    +0.000 N 
ATOM     16  H   ALA A   4     -14.221   2.027 -17.798  0.00  0.00    +0.000 HD
BRANCH  15  17
ATOM     17  CA  ALA A   4     -14.479   3.320 -16.080  0.00  0.00    +0.000 C 
ATOM     18  CB  ALA A   4     -13.346   3.083 -15.095  0.00  0.00    +0.000 C 
BRANCH  17  19
ATOM     19  C   ALA A   4     -14.175   4.505 -16.964  0.00  0.00    +0.000 C 
ATOM     20  N   PHE A   5     -14.462   5.691 -16.447  0.00  0.00    +0.000 N 
ATOM     21  H   PHE A   5     -14.844   5.739 -15.481  0.00  0.00    +0.000 HD
ATOM     22  O   ALA A   4     -13.696   4.345 -18.086  0.00  0.00    +0.000 OA
BRANCH  20  23
ATOM     23  CA  PHE A   5     -14.261   6.926 -17.183  0.00  0.00    +0.000 C 
BRANCH  23  24
ATOM     24  C   PHE A   5     -13.011   7.638 -16.703  0.00  0.00    +0.000 C 
ATOM     25  O   PHE A   5     -12.704   7.638 -15.511  0.00  0.00    +0.000 OA
ENDBRANCH  23  24
BRANCH  23  26
ATOM     26  CB  PHE A   5     -15.476   7.826 -17.010  0.00  0.00    +0.000 C 
BRANCH  26  27
ATOM     27  CG  PHE A   5     -16.759   7.201 -17.480  0.00  0.00    +0.000 A 
ATOM     28  CD2 PHE A   5     -17.615   6.575 -16.580  0.00  0.00    +0.000 A 
ATOM     29  CE2 PHE A   5     -18.810   5.997 -17.013  0.00  0.00    +0.000 A 
ATOM     30  CZ  PHE A   5     -19.154   6.042 -18.358  0.00  0.00    +0.000 A 
ATOM     31  CE1 PHE A   5     -18.304   6.658 -19.267  0.00  0.00    +0.000 A 
ATOM     32  CD1 PHE A   5     -17.112   7.235 -18.825  0.00  0.00    +0.000 A 
ENDBRANCH  26  27
ENDBRANCH  23  26
ENDBRANCH  20  23
ENDBRANCH  17  19
ENDBRANCH  15  17
ENDBRANCH  12  13
BRANCH  12  33
ATOM     33  CB  HIS A   3     -16.487   0.219 -18.617  0.00  0.00    +0.000 C 
BRANCH  33  34
ATOM     34  CG  HIS A   3     -17.766   0.942 -18.348  0.00  0.00    +0.000 A 
ATOM     35  CD2 HIS A   3     -18.930   0.534 -17.792  0.00  0.00    +0.000 A 
ATOM     36  NE2 HIS A   3     -19.767   1.620 -17.759  0.00  0.00    +0.000 NA
ATOM     37  CE1 HIS A   3     -19.129   2.667 -18.254  0.00  0.00    +0.000 A 
ATOM     38  ND1 HIS A   3     -17.913   2.289 -18.606  0.00  0.00    +0.000 NA
ENDBRANCH  33  34
ENDBRANCH  12  33
ENDBRANCH   9  12
ENDBRANCH   6   8
ENDBRANCH   4   6
ENDBRANCH   1   2
BRANCH   1  39
ATOM     39  N   UNK A   1     -16.702  -6.941 -18.128  0.00  0.00    +0.000 NA
ATOM     40  H   UNK A   1     -15.795  -6.664 -18.556  0.00  0.00    +0.000 HD
BRANCH  39  41
ATOM     41  C   UNK A   0     -17.757  -7.110 -18.917  0.00  0.00    +0.000 C 
BRANCH  41  42
ATOM     42  C   UNK A   0     -17.517  -6.881 -20.403  0.00  0.00    +0.000 C 
BRANCH  42  45
ATOM     43  C   UNK A   0     -17.220  -9.223 -21.035  0.00  0.00    +0.000 C 
ATOM     44  O   UNK A   0     -16.222  -9.346 -20.320  0.00  0.00    +0.000 OA
ATOM     45  N   UNK A   0     -17.903  -8.085 -21.152  0.00  0.00    +0.000 N 
ATOM     46  H   UNK A   0     -18.726  -8.048 -21.786  0.00  0.00    +0.000 HD
BRANCH  43  47
ATOM     47  C   UNK A   0     -17.737 -10.403 -21.837  0.00  0.00    +0.000 C 
BRANCH  47  50
ATOM     48  C   UNK A   0     -18.884 -11.515 -19.999  0.00  0.00    +0.000 C 
ATOM     49  O   UNK A   0     -19.549 -10.510 -19.750  0.00  0.00    +0.000 OA
ATOM     50  N   UNK A   0     -17.994 -11.565 -20.985  0.00  0.00    +0.000 N 
ATOM     51  H   UNK A   0     -17.470 -12.447 -21.154  0.00  0.00    +0.000 HD
BRANCH  48  52
ATOM     52  C   UNK A   0     -19.049 -12.781 -19.183  0.00  0.00    +0.000 C 
BRANCH  52  53
ATOM     53  N   UNK A   0     -20.152 -12.692 -18.233  0.00  0.00    +0.000 NA
ATOM     54  H   UNK A   0     -19.943 -12.437 -17.247  0.00  0.00    +0.000 HD
ENDBRANCH  52  53
ENDBRANCH  48  52
ENDBRANCH  47  50
ENDBRANCH  43  47
ENDBRANCH  42  45
BRANCH  42  55
ATOM     55  C   UNK A   0     -18.301  -5.616 -20.840  0.00  0.00    +0.000 C 
ATOM     56  C   UNK A   0     -17.902  -4.412 -19.975  0.00  0.00    +0.000 C 
BRANCH  55  57
ATOM     57  C   UNK A   0     -18.071  -5.303 -22.321  0.00  0.00    +0.000 C 
ATOM     58  C   UNK A   0     -18.909  -4.146 -22.850  0.00  0.00    +0.000 C 
ENDBRANCH  55  57
ENDBRANCH  42  55
ENDBRANCH  41  42
BRANCH  41  59
ATOM     59  O   UNK A   0     -18.875  -7.432 -18.502  0.00  0.00    +0.000 OA
BRANCH  59  60
ATOM     60 CA   UNK A   1     -20.673  -8.828 -18.486  0.00  0.00    +0.000 Ca
BRANCH  60  61
ATOM     61  O   UNK A   1     -19.915  -9.600 -16.579  0.00  0.00    +0.000 OA
BRANCH  61  62
ATOM     62  C   UNK A   1     -19.480 -10.303 -15.649  0.00  0.00    +0.000 C 
ATOM     63  O   UNK A   1     -19.360 -11.546 -15.710  0.00  0.00    +0.000 OA
BRANCH  62  64
ATOM     64  C   UNK A   1     -19.072  -9.580 -14.397  0.00  0.00    +0.000 C 
BRANCH  64  65
ATOM     65  C   UNK A   1     -19.240 -10.402 -13.130  0.00  0.00    +0.000 C 
BRANCH  65  66
ATOM     66  C   UNK A   1     -20.574 -11.148 -12.985  0.00  0.00    +0.000 C 
BRANCH  66  67
ATOM     67  N   UNK A   1     -21.715 -10.328 -13.375  0.00  0.00    +0.000 NA
ATOM     68  H   UNK A   1     -21.640  -9.291 -13.346  0.00  0.00    +0.000 HD
ENDBRANCH  66  67
BRANCH  66  69
ATOM     69  C   UNK A   1     -20.758 -11.590 -11.543  0.00  0.00    +0.000 C 
ATOM     70  O   UNK A   1     -21.575 -11.024 -10.812  0.00  0.00    +0.000 OA
ENDBRANCH  66  69
ENDBRANCH  65  66
ENDBRANCH  64  65
ENDBRANCH  62  64
ENDBRANCH  61  62
ENDBRANCH  60  61
ENDBRANCH  59  60
ENDBRANCH  41  59
ENDBRANCH  39  41
ENDBRANCH   1  39
BRANCH   1  71
ATOM     71  C   UNK A   1     -15.482  -7.790 -16.182  0.00  0.00    +0.000 C 
BRANCH  71  72
ATOM     72  C   UNK A   1     -15.055  -9.067 -16.912  0.00  0.00    +0.000 C 
ATOM     73  C   UNK A   1     -13.701  -9.539 -16.424  0.00  0.00    +0.000 C 
ATOM     74  C   UNK A   1     -16.099 -10.173 -16.764  0.00  0.00    +0.000 C 
ENDBRANCH  71  72
ENDBRANCH   1  71
TORSDOF 34
REMARK  Name = ../refined-set-2016/3f18/3f18_pocket.pdb
REMARK  152 active torsions:
REMARK  status: ('A' for Active; 'I' for Inactive)
REMARK    1  A    between atoms: _1  and  _3
REMARK    2  A    between atoms: _3  and  _4
REMARK    3  A    between atoms: _3  and  _6
REMARK    4  A    between atoms: _6  and  _7
REMARK    5  A    between atoms: _13  and  _15
REMARK    6  A    between atoms: _15  and  _16
REMARK    7  A    between atoms: _15  and  _18
REMARK    8  A    between atoms: _18  and  _19
REMARK    9  A    between atoms: _22  and  _24
REMARK   10  A    between atoms: _24  and  _25
REMARK   11  A    between atoms: _27  and  _29
REMARK   12  A    between atoms: _29  and  _30
REMARK   13  A    between atoms: _32  and  _34
REMARK   14  A    between atoms: _34  and  _35
REMARK   15  A    between atoms: _34  and  _37
REMARK   16  A    between atoms: _35  and  _36
REMARK   17  A    between atoms: _35  and  _41
REMARK   18  A    between atoms: _36  and  CA_369
REMARK   19  A    between atoms: _37  and  _38
REMARK   20  A    between atoms: _41  and  _43
REMARK   21  A    between atoms: _43  and  _44
REMARK   22  A    between atoms: _43  and  _46
REMARK   23  A    between atoms: _46  and  _47
REMARK   24  A    between atoms: _50  and  _52
REMARK   25  A    between atoms: _52  and  _53
REMARK   26  A    between atoms: _56  and  _58
REMARK   27  A    between atoms: _58  and  _59
REMARK   28  A    between atoms: _58  and  _61
REMARK   29  A    between atoms: _61  and  _62
REMARK   30  A    between atoms: _67  and  _69
REMARK   31  A    between atoms: _69  and  _70
REMARK   32  A    between atoms: _73  and  _75
REMARK   33  A    between atoms: _75  and  _76
REMARK   34  A    between atoms: _75  and  _78
REMARK   35  A    between atoms: _78  and  _79
REMARK   36  A    between atoms: _85  and  _87
REMARK   37  A    between atoms: _87  and  _88
REMARK   38  A    between atoms: _87  and  _90
REMARK   39  A    between atoms: _90  and  _91
REMARK   40  A    between atoms: _96  and  _98
REMARK   41  A    between atoms: _98  and  _99
REMARK   42  A    between atoms: _98  and  _101
REMARK   43  A    between atoms: _101  and  _102
REMARK   44  A    between atoms: _108  and  _110
REMARK   45  A    between atoms: _110  and  _111
REMARK   46  A    between atoms: _110  and  _113
REMARK   47  A    between atoms: _113  and  _114
REMARK   48  A    between atoms: _117  and  _119
REMARK   49  A    between atoms: _119  and  _120
REMARK   50  A    between atoms: _119  and  _122
REMARK   51  A    between atoms: _122  and  _123
REMARK   52  A    between atoms: _123  and  _124
REMARK   53  A    between atoms: _124  and  _126
REMARK   54  A    between atoms: _126  and  CA_369
REMARK   55  A    between atoms: _127  and  _129
REMARK   56  A    between atoms: _129  and  _130
REMARK   57  A    between atoms: _129  and  _132
REMARK   58  A    between atoms: _132  and  _133
REMARK   59  A    between atoms: _143  and  _145
REMARK   60  A    between atoms: _145  and  _146
REMARK   61  A    between atoms: _145  and  _148
REMARK   62  A    between atoms: _148  and  _149
REMARK   63  A    between atoms: _152  and  _154
REMARK   64  A    between atoms: _154  and  _155
REMARK   65  A    between atoms: _154  and  _157
REMARK   66  A    between atoms: _157  and  _158
REMARK   67  A    between atoms: _163  and  _165
REMARK   68  A    between atoms: _165  and  _166
REMARK   69  A    between atoms: _165  and  _168
REMARK   70  A    between atoms: _168  and  _169
REMARK   71  A    between atoms: _172  and  _174
REMARK   72  A    between atoms: _174  and  _175
REMARK   73  A    between atoms: _174  and  _177
REMARK   74  A    between atoms: _177  and  _178
REMARK   75  A    between atoms: _184  and  _186
REMARK   76  A    between atoms: _186  and  _187
REMARK   77  A    between atoms: _186  and  _189
REMARK   78  A    between atoms: _189  and  _190
REMARK   79  A    between atoms: _193  and  _195
REMARK   80  A    between atoms: _195  and  _196
REMARK   81  A    between atoms: _195  and  _198
REMARK   82  A    between atoms: _198  and  _199
REMARK   83  A    between atoms: _202  and  _204
REMARK   84  A    between atoms: _204  and  _205
REMARK   85  A    between atoms: _208  and  _210
REMARK   86  A    between atoms: _210  and  _211
REMARK   87  A    between atoms: _210  and  _213
REMARK   88  A    between atoms: _216  and  _218
REMARK   89  A    between atoms: _218  and  _219
REMARK   90  A    between atoms: _218  and  _221
REMARK   91  A    between atoms: _221  and  _222
REMARK   92  A    between atoms: _226  and  ZN_368
REMARK   93  A    between atoms: _227  and  _229
REMARK   94  A    between atoms: _229  and  _230
REMARK   95  A    between atoms: _229  and  _232
REMARK   96  A    between atoms: _232  and  _233
REMARK   97  A    between atoms: _233  and  _234
REMARK   98  A    between atoms: _237  and  _239
REMARK   99  A    between atoms: _239  and  _240
REMARK  100  A    between atoms: _239  and  _242
REMARK  101  A    between atoms: _242  and  _243
REMARK  102  A    between atoms: _246  and  _248
REMARK  103  A    between atoms: _248  and  _249
REMARK  104  A    between atoms: _248  and  _251
REMARK  105  A    between atoms: _251  and  _252
REMARK  106  A    between atoms: _256  and  ZN_368
REMARK  107  A    between atoms: _257  and  _259
REMARK  108  A    between atoms: _259  and  _260
REMARK  109  A    between atoms: _259  and  _262
REMARK  110  A    between atoms: _262  and  _263
REMARK  111  A    between atoms: _265  and  _267
REMARK  112  A    between atoms: _267  and  _268
REMARK  113  A    between atoms: _267  and  _270
REMARK  114  A    between atoms: _270  and  _271
REMARK  115  A    between atoms: _274  and  _276
REMARK  116  A    between atoms: _276  and  _277
REMARK  117  A    between atoms: _279  and  _281
REMARK  118  A    between atoms: _281  and  _282
REMARK  119  A    between atoms: _281  and  _284
REMARK  120  A    between atoms: _284  and  _285
REMARK  121  A    between atoms: _289  and  ZN_368
REMARK  122  A    between atoms: _290  and  _292
REMARK  123  A    between atoms: _292  and  _293
REMARK  124  A    between atoms: _296  and  _298
REMARK  125  A    between atoms: _298  and  _299
REMARK  126  A    between atoms: _298  and  _301
REMARK  127  A    between atoms: _304  and  _306
REMARK  128  A    between atoms: _306  and  _307
REMARK  129  A    between atoms: _306  and  _309
REMARK  130  A    between atoms: _309  and  _310
REMARK  131  A    between atoms: _310  and  _311
REMARK  132  A    between atoms: _313  and  _315
REMARK  133  A    between atoms: _315  and  _316
REMARK  134  A    between atoms: _315  and  _318
REMARK  135  A    between atoms: _318  and  _319
REMARK  136  A    between atoms: _326  and  _327
REMARK  137  A    between atoms: _332  and  _334
REMARK  138  A    between atoms: _334  and  _335
REMARK  139  A    between atoms: _334  and  _337
REMARK  140  A    between atoms: _337  and  _338
REMARK  141  A    between atoms: _341  and  _343
REMARK  142  A    between atoms: _343  and  _344
REMARK  143  A    between atoms: _343  and  _346
REMARK  144  A    between atoms: _346  and  _347
REMARK  145  A    between atoms: _352  and  _353
REMARK  146  A    between atoms: _355  and  _357
REMARK  147  A    between atoms: _357  and  _358
REMARK  148  A    between atoms: _357  and  _360
REMARK  149  A    between atoms: _360  and  _361
REMARK  150  A    between atoms: _361  and  _362
REMARK  151  A    between atoms: _362  and  _363
REMARK  152  A    between atoms: _363  and  _364
REMARK                            x       y       z     vdW  Elec       q    Type
REMARK                         _______ _______ _______ _____ _____    ______ ____
ROOT
ATOM      1  CA  PHE A   2     -18.791  -3.159 -12.324  0.00  0.00    +0.153 C 
ENDROOT
BRANCH   1   3
ATOM      2  C   HIS A   1     -18.444  -0.881 -13.171  0.00  0.00    +0.239 C 
ATOM      3  N   PHE A   2     -19.033  -1.722 -12.325  0.00  0.00    -0.297 N 
ATOM      4  H   PHE A   2     -19.701  -1.334 -11.628  0.00  0.00    +0.150 HD
ATOM      5  O   HIS A   1     -17.707  -1.243 -14.090  0.00  0.00    -0.274 OA
BRANCH   2   6
ATOM      6  CA  HIS A   1     -18.775   0.588 -12.982  0.00  0.00    +0.151 C 
BRANCH   6   7
ATOM      7  N   HIS A   1     -17.559   1.395 -13.005  0.00  0.00    -0.238 NA
ATOM      8  H   HIS A   1     -17.004   1.431 -13.884  0.00  0.00    +0.142 HD
ENDBRANCH   6   7
BRANCH   6   9
ATOM      9  CB  HIS A   1     -19.729   1.011 -14.102  0.00  0.00    +0.074 C 
BRANCH   9  10
ATOM     10  CG  HIS A   1     -20.188   2.434 -14.020  0.00  0.00    +0.082 A 
ATOM     11  CD2 HIS A   1     -20.058   3.366 -13.047  0.00  0.00    +0.115 A 
ATOM     12  NE2 HIS A   1     -20.677   4.507 -13.494  0.00  0.00    -0.221 NA
ATOM     13  CE1 HIS A   1     -21.160   4.286 -14.704  0.00  0.00    +0.199 A 
ATOM     14  ND1 HIS A   1     -20.877   3.042 -15.047  0.00  0.00    -0.227 NA
ENDBRANCH   9  10
ENDBRANCH   6   9
ENDBRANCH   2   6
ENDBRANCH   1   3
BRANCH   1  15
ATOM     15  C   PHE A   2     -20.091  -3.875 -12.652  0.00  0.00    +0.241 C 
ATOM     16  O   PHE A   2     -21.135  -3.571 -12.063  0.00  0.00    -0.273 OA
ATOM     17  N   ASP A   3     -20.029  -4.811 -13.600  0.00  0.00    -0.298 N 
ATOM     18  H   ASP A   3     -19.103  -5.049 -14.008  0.00  0.00    +0.150 HD
BRANCH  17  19
ATOM     19  CA  ASP A   3     -21.212  -5.513 -14.086  0.00  0.00    +0.148 C 
BRANCH  19  20
ATOM     20  C   ASP A   3     -21.704  -6.491 -13.029  0.00  0.00    +0.227 C 
ATOM     21  O   ASP A   3     -21.014  -7.454 -12.689  0.00  0.00    -0.286 OA
ENDBRANCH  19  20
BRANCH  19  22
ATOM     22  CB  ASP A   3     -20.872  -6.243 -15.388  0.00  0.00    +0.142 C 
BRANCH  22  23
ATOM     23  CG  ASP A   3     -22.092  -6.830 -16.091  0.00  0.00    +0.367 C 
ATOM     24  OD2 ASP A   3     -23.205  -6.835 -15.524  0.00  0.00    -0.246 OA
ATOM     25  OD1 ASP A   3     -21.919  -7.285 -17.240  0.00  0.00    -0.246 OA
ENDBRANCH  22  23
ENDBRANCH  19  22
ENDBRANCH  17  19
ENDBRANCH   1  15
BRANCH   1  26
ATOM     26  CB  PHE A   2     -18.249  -3.589 -10.957  0.00  0.00    +0.055 C 
BRANCH  26  27
ATOM     27  CG  PHE A   2     -16.932  -2.961 -10.625  0.00  0.00    -0.020 A 
ATOM     28  CD2 PHE A   2     -16.865  -1.661 -10.120  0.00  0.00    -0.004 A 
ATOM     29  CE2 PHE A   2     -15.642  -1.055  -9.852  0.00  0.00    -0.000 A 
ATOM     30  CZ  PHE A   2     -14.467  -1.753 -10.085  0.00  0.00    -0.000 A 
ATOM     31  CE1 PHE A   2     -14.520  -3.050 -10.598  0.00  0.00    -0.000 A 
ATOM     32  CD1 PHE A   2     -15.751  -3.641 -10.872  0.00  0.00    -0.004 A 
ENDBRANCH  26  27
ENDBRANCH   1  26
TORSDOF 12
REMARK  Name = ../refined-set-2016/3f18/3f18_pocket.pdb
REMARK  152 active torsions:
REMARK  status: ('A' for Active; 'I' for Inactive)
REMARK    1  A    between atoms: _1  and  _3
REMARK    2  A    between atoms: _3  and  _4
REMARK    3  A    between atoms: _3  and  _6
REMARK    4  A    between atoms: _6  and  _7
REMARK    5  A    between atoms: _13  and  _15
REMARK    6  A    between atoms: _15  and  _16
REMARK    7  A    between atoms: _15  and  _18
REMARK    8  A    between atoms: _18  and  _19
REMARK    9  A    between atoms: _22  and  _24
REMARK   10  A    between atoms: _24  and  _25
REMARK   11  A    between atoms: _27  and  _29
REMARK   12  A    between atoms: _29  and  _30
REMARK   13  A    between atoms: _32  and  _34
REMARK   14  A    between atoms: _34  and  _35
REMARK   15  A    between atoms: _34  and  _37
REMARK   16  A    between atoms: _35  and  _36
REMARK   17  A    between atoms: _35  and  _41
REMARK   18  A    between atoms: _36  and  CA_369
REMARK   19  A    between atoms: _37  and  _38
REMARK   20  A    between atoms: _41  and  _43
REMARK   21  A    between atoms: _43  and  _44
REMARK   22  A    between atoms: _43  and  _46
REMARK   23  A    between atoms: _46  and  _47
REMARK   24  A    between atoms: _50  and  _52
REMARK   25  A    between atoms: _52  and  _53
REMARK   26  A    between atoms: _56  and  _58
REMARK   27  A    between atoms: _58  and  _59
REMARK   28  A    between atoms: _58  and  _61
REMARK   29  A    between atoms: _61  and  _62
REMARK   30  A    between atoms: _67  and  _69
REMARK   31  A    between atoms: _69  and  _70
REMARK   32  A    between atoms: _73  and  _75
REMARK   33  A    between atoms: _75  and  _76
REMARK   34  A    between atoms: _75  and  _78
REMARK   35  A    between atoms: _78  and  _79
REMARK   36  A    between atoms: _85  and  _87
REMARK   37  A    between atoms: _87  and  _88
REMARK   38  A    between atoms: _87  and  _90
REMARK   39  A    between atoms: _90  and  _91
REMARK   40  A    between atoms: _96  and  _98
REMARK   41  A    between atoms: _98  and  _99
REMARK   42  A    between atoms: _98  and  _101
REMARK   43  A    between atoms: _101  and  _102
REMARK   44  A    between atoms: _108  and  _110
REMARK   45  A    between atoms: _110  and  _111
REMARK   46  A    between atoms: _110  and  _113
REMARK   47  A    between atoms: _113  and  _114
REMARK   48  A    between atoms: _117  and  _119
REMARK   49  A    between atoms: _119  and  _120
REMARK   50  A    between atoms: _119  and  _122
REMARK   51  A    between atoms: _122  and  _123
REMARK   52  A    between atoms: _123  and  _124
REMARK   53  A    between atoms: _124  and  _126
REMARK   54  A    between atoms: _126  and  CA_369
REMARK   55  A    between atoms: _127  and  _129
REMARK   56  A    between atoms: _129  and  _130
REMARK   57  A    between atoms: _129  and  _132
REMARK   58  A    between atoms: _132  and  _133
REMARK   59  A    between atoms: _143  and  _145
REMARK   60  A    between atoms: _145  and  _146
REMARK   61  A    between atoms: _145  and  _148
REMARK   62  A    between atoms: _148  and  _149
REMARK   63  A    between atoms: _152  and  _154
REMARK   64  A    between atoms: _154  and  _155
REMARK   65  A    between atoms: _154  and  _157
REMARK   66  A    between atoms: _157  and  _158
REMARK   67  A    between atoms: _163  and  _165
REMARK   68  A    between atoms: _165  and  _166
REMARK   69  A    between atoms: _165  and  _168
REMARK   70  A    between atoms: _168  and  _169
REMARK   71  A    between atoms: _172  and  _174
REMARK   72  A    between atoms: _174  and  _175
REMARK   73  A    between atoms: _174  and  _177
REMARK   74  A    between atoms: _177  and  _178
REMARK   75  A    between atoms: _184  and  _186
REMARK   76  A    between atoms: _186  and  _187
REMARK   77  A    between atoms: _186  and  _189
REMARK   78  A    between atoms: _189  and  _190
REMARK   79  A    between atoms: _193  and  _195
REMARK   80  A    between atoms: _195  and  _196
REMARK   81  A    between atoms: _195  and  _198
REMARK   82  A    between atoms: _198  and  _199
REMARK   83  A    between atoms: _202  and  _204
REMARK   84  A    between atoms: _204  and  _205
REMARK   85  A    between atoms: _208  and  _210
REMARK   86  A    between atoms: _210  and  _211
REMARK   87  A    between atoms: _210  and  _213
REMARK   88  A    between atoms: _216  and  _218
REMARK   89  A    between atoms: _218  and  _219
REMARK   90  A    between atoms: _218  and  _221
REMARK   91  A    between atoms: _221  and  _222
REMARK   92  A    between atoms: _226  and  ZN_368
REMARK   93  A    between atoms: _227  and  _229
REMARK   94  A    between atoms: _229  and  _230
REMARK   95  A    between atoms: _229  and  _232
REMARK   96  A    between atoms: _232  and  _233
REMARK   97  A    between atoms: _233  and  _234
REMARK   98  A    between atoms: _237  and  _239
REMARK   99  A    between atoms: _239  and  _240
REMARK  100  A    between atoms: _239  and  _242
REMARK  101  A    between atoms: _242  and  _243
REMARK  102  A    between atoms: _246  and  _248
REMARK  103  A    between atoms: _248  and  _249
REMARK  104  A    between atoms: _248  and  _251
REMARK  105  A    between atoms: _251  and  _252
REMARK  106  A    between atoms: _256  and  ZN_368
REMARK  107  A    between atoms: _257  and  _259
REMARK  108  A    between atoms: _259  and  _260
REMARK  109  A    between atoms: _259  and  _262
REMARK  110  A    between atoms: _262  and  _263
REMARK  111  A    between atoms: _265  and  _267
REMARK  112  A    between atoms: _267  and  _268
REMARK  113  A    between atoms: _267  and  _270
REMARK  114  A    between atoms: _270  and  _271
REMARK  115  A    between atoms: _274  and  _276
REMARK  116  A    between atoms: _276  and  _277
REMARK  117  A    between atoms: _279  and  _281
REMARK  118  A    between atoms: _281  and  _282
REMARK  119  A    between atoms: _281  and  _284
REMARK  120  A    between atoms: _284  and  _285
REMARK  121  A    between atoms: _289  and  ZN_368
REMARK  122  A    between atoms: _290  and  _292
REMARK  123  A    between atoms: _292  and  _293
REMARK  124  A    between atoms: _296  and  _298
REMARK  125  A    between atoms: _298  and  _299
REMARK  126  A    between atoms: _298  and  _301
REMARK  127  A    between atoms: _304  and  _306
REMARK  128  A    between atoms: _306  and  _307
REMARK  129  A    between atoms: _306  and  _309
REMARK  130  A    between atoms: _309  and  _310
REMARK  131  A    between atoms: _310  and  _311
REMARK  132  A    between atoms: _313  and  _315
REMARK  133  A    between atoms: _315  and  _316
REMARK  134  A    between atoms: _315  and  _318
REMARK  135  A    between atoms: _318  and  _319
REMARK  136  A    between atoms: _326  and  _327
REMARK  137  A    between atoms: _332  and  _334
REMARK  138  A    between atoms: _334  and  _335
REMARK  139  A    between atoms: _334  and  _337
REMARK  140  A    between atoms: _337  and  _338
REMARK  141  A    between atoms: _341  and  _343
REMARK  142  A    between atoms: _343  and  _344
REMARK  143  A    between atoms: _343  and  _346
REMARK  144  A    between atoms: _346  and  _347
REMARK  145  A    between atoms: _352  and  _353
REMARK  146  A    between atoms: _355  and  _357
REMARK  147  A    between atoms: _357  and  _358
REMARK  148  A    between atoms: _357  and  _360
REMARK  149  A    between atoms: _360  and  _361
REMARK  150  A    between atoms: _361  and  _362
REMARK  151  A    between atoms: _362  and  _363
REMARK  152  A    between atoms: _363  and  _364
REMARK                            x       y       z     vdW  Elec       q    Type
REMARK                         _______ _______ _______ _____ _____    ______ ____
ROOT
ATOM      1  CG  TRP A   1     -18.223  -8.719  -8.631  0.00  0.00    -0.002 A 
ATOM      2  CD1 TRP A   1     -19.491  -8.386  -9.007  0.00  0.00    +0.068 A 
ATOM      3  NE1 TRP A   1     -19.477  -7.765 -10.235  0.00  0.00    -0.352 N 
ATOM      4  CE2 TRP A   1     -18.181  -7.697 -10.679  0.00  0.00    +0.056 A 
ATOM      5  CZ2 TRP A   1     -17.659  -7.172 -11.866  0.00  0.00    +0.017 A 
ATOM      6  CH2 TRP A   1     -16.301  -7.251 -12.045  0.00  0.00    +0.001 A 
ATOM      7  CZ3 TRP A   1     -15.461  -7.841 -11.082  0.00  0.00    +0.000 A 
ATOM      8  CE3 TRP A   1     -15.982  -8.368  -9.909  0.00  0.00    +0.001 A 
ATOM      9  HE1 TRP A   1     -20.311  -7.407 -10.742  0.00  0.00    +0.166 HD
ATOM     10  CD2 TRP A   1     -17.365  -8.299  -9.695  0.00  0.00    +0.013 A 
ENDROOT
BRANCH   1  11
ATOM     11  CB  TRP A   1     -17.815  -9.461  -7.408  0.00  0.00    +0.053 C 
BRANCH  11  12
ATOM     12  CA  TRP A   1     -17.517 -10.926  -7.760  0.00  0.00    +0.137 C 
BRANCH  12  13
ATOM     13  N   TRP A   1     -18.704 -11.534  -8.352  0.00  0.00    -0.239 NA
ATOM     14  H   TRP A   1     -19.631 -11.103  -8.159  0.00  0.00    +0.142 HD
ENDBRANCH  12  13
BRANCH  12  15
ATOM     15  C   TRP A   1     -17.045 -11.691  -6.542  0.00  0.00    +0.224 C 
ATOM     16  O   TRP A   1     -17.863 -12.097  -5.719  0.00  0.00    -0.287 OA
ENDBRANCH  12  15
ENDBRANCH  11  12
ENDBRANCH   1  11
TORSDOF 4
REMARK  Name = ../refined-set-2016/3f18/3f18_pocket.pdb
REMARK  152 active torsions:
REMARK  status: ('A' for Active; 'I' for Inactive)
REMARK    1  A    between atoms: _1  and  _3
REMARK    2  A    between atoms: _3  and  _4
REMARK    3  A    between atoms: _3  and  _6
REMARK    4  A    between atoms: _6  and  _7
REMARK    5  A    between atoms: _13  and  _15
REMARK    6  A    between atoms: _15  and  _16
REMARK    7  A    between atoms: _15  and  _18
REMARK    8  A    between atoms: _18  and  _19
REMARK    9  A    between atoms: _22  and  _24
REMARK   10  A    between atoms: _24  and  _25
REMARK   11  A    between atoms: _27  and  _29
REMARK   12  A    between atoms: _29  and  _30
REMARK   13  A    between atoms: _32  and  _34
REMARK   14  A    between atoms: _34  and  _35
REMARK   15  A    between atoms: _34  and  _37
REMARK   16  A    between atoms: _35  and  _36
REMARK   17  A    between atoms: _35  and  _41
REMARK   18  A    between atoms: _36  and  CA_369
REMARK   19  A    between atoms: _37  and  _38
REMARK   20  A    between atoms: _41  and  _43
REMARK   21  A    between atoms: _43  and  _44
REMARK   22  A    between atoms: _43  and  _46
REMARK   23  A    between atoms: _46  and  _47
REMARK   24  A    between atoms: _50  and  _52
REMARK   25  A    between atoms: _52  and  _53
REMARK   26  A    between atoms: _56  and  _58
REMARK   27  A    between atoms: _58  and  _59
REMARK   28  A    between atoms: _58  and  _61
REMARK   29  A    between atoms: _61  and  _62
REMARK   30  A    between atoms: _67  and  _69
REMARK   31  A    between atoms: _69  and  _70
REMARK   32  A    between atoms: _73  and  _75
REMARK   33  A    between atoms: _75  and  _76
REMARK   34  A    between atoms: _75  and  _78
REMARK   35  A    between atoms: _78  and  _79
REMARK   36  A    between atoms: _85  and  _87
REMARK   37  A    between atoms: _87  and  _88
REMARK   38  A    between atoms: _87  and  _90
REMARK   39  A    between atoms: _90  and  _91
REMARK   40  A    between atoms: _96  and  _98
REMARK   41  A    between atoms: _98  and  _99
REMARK   42  A    between atoms: _98  and  _101
REMARK   43  A    between atoms: _101  and  _102
REMARK   44  A    between atoms: _108  and  _110
REMARK   45  A    between atoms: _110  and  _111
REMARK   46  A    between atoms: _110  and  _113
REMARK   47  A    between atoms: _113  and  _114
REMARK   48  A    between atoms: _117  and  _119
REMARK   49  A    between atoms: _119  and  _120
REMARK   50  A    between atoms: _119  and  _122
REMARK   51  A    between atoms: _122  and  _123
REMARK   52  A    between atoms: _123  and  _124
REMARK   53  A    between atoms: _124  and  _126
REMARK   54  A    between atoms: _126  and  CA_369
REMARK   55  A    between atoms: _127  and  _129
REMARK   56  A    between atoms: _129  and  _130
REMARK   57  A    between atoms: _129  and  _132
REMARK   58  A    between atoms: _132  and  _133
REMARK   59  A    between atoms: _143  and  _145
REMARK   60  A    between atoms: _145  and  _146
REMARK   61  A    between atoms: _145  and  _148
REMARK   62  A    between atoms: _148  and  _149
REMARK   63  A    between atoms: _152  and  _154
REMARK   64  A    between atoms: _154  and  _155
REMARK   65  A    between atoms: _154  and  _157
REMARK   66  A    between atoms: _157  and  _158
REMARK   67  A    between atoms: _163  and  _165
REMARK   68  A    between atoms: _165  and  _166
REMARK   69  A    between atoms: _165  and  _168
REMARK   70  A    between atoms: _168  and  _169
REMARK   71  A    between atoms: _172  and  _174
REMARK   72  A    between atoms: _174  and  _175
REMARK   73  A    between atoms: _174  and  _177
REMARK   74  A    between atoms: _177  and  _178
REMARK   75  A    between atoms: _184  and  _186
REMARK   76  A    between atoms: _186  and  _187
REMARK   77  A    between atoms: _186  and  _189
REMARK   78  A    between atoms: _189  and  _190
REMARK   79  A    between atoms: _193  and  _195
REMARK   80  A    between atoms: _195  and  _196
REMARK   81  A    between atoms: _195  and  _198
REMARK   82  A    between atoms: _198  and  _199
REMARK   83  A    between atoms: _202  and  _204
REMARK   84  A    between atoms: _204  and  _205
REMARK   85  A    between atoms: _208  and  _210
REMARK   86  A    between atoms: _210  and  _211
REMARK   87  A    between atoms: _210  and  _213
REMARK   88  A    between atoms: _216  and  _218
REMARK   89  A    between atoms: _218  and  _219
REMARK   90  A    between atoms: _218  and  _221
REMARK   91  A    between atoms: _221  and  _222
REMARK   92  A    between atoms: _226  and  ZN_368
REMARK   93  A    between atoms: _227  and  _229
REMARK   94  A    between atoms: _229  and  _230
REMARK   95  A    between atoms: _229  and  _232
REMARK   96  A    between atoms: _232  and  _233
REMARK   97  A    between atoms: _233  and  _234
REMARK   98  A    between atoms: _237  and  _239
REMARK   99  A    between atoms: _239  and  _240
REMARK  100  A    between atoms: _239  and  _242
REMARK  101  A    between atoms: _242  and  _243
REMARK  102  A    between atoms: _246  and  _248
REMARK  103  A    between atoms: _248  and  _249
REMARK  104  A    between atoms: _248  and  _251
REMARK  105  A    between atoms: _251  and  _252
REMARK  106  A    between atoms: _256  and  ZN_368
REMARK  107  A    between atoms: _257  and  _259
REMARK  108  A    between atoms: _259  and  _260
REMARK  109  A    between atoms: _259  and  _262
REMARK  110  A    between atoms: _262  and  _263
REMARK  111  A    between atoms: _265  and  _267
REMARK  112  A    between atoms: _267  and  _268
REMARK  113  A    between atoms: _267  and  _270
REMARK  114  A    between atoms: _270  and  _271
REMARK  115  A    between atoms: _274  and  _276
REMARK  116  A    between atoms: _276  and  _277
REMARK  117  A    between atoms: _279  and  _281
REMARK  118  A    between atoms: _281  and  _282
REMARK  119  A    between atoms: _281  and  _284
REMARK  120  A    between atoms: _284  and  _285
REMARK  121  A    between atoms: _289  and  ZN_368
REMARK  122  A    between atoms: _290  and  _292
REMARK  123  A    between atoms: _292  and  _293
REMARK  124  A    between atoms: _296  and  _298
REMARK  125  A    between atoms: _298  and  _299
REMARK  126  A    between atoms: _298  and  _301
REMARK  127  A    between atoms: _304  and  _306
REMARK  128  A    between atoms: _306  and  _307
REMARK  129  A    between atoms: _306  and  _309
REMARK  130  A    between atoms: _309  and  _310
REMARK  131  A    between atoms: _310  and  _311
REMARK  132  A    between atoms: _313  and  _315
REMARK  133  A    between atoms: _315  and  _316
REMARK  134  A    between atoms: _315  and  _318
REMARK  135  A    between atoms: _318  and  _319
REMARK  136  A    between atoms: _326  and  _327
REMARK  137  A    between atoms: _332  and  _334
REMARK  138  A    between atoms: _334  and  _335
REMARK  139  A    between atoms: _334  and  _337
REMARK  140  A    between atoms: _337  and  _338
REMARK  141  A    between atoms: _341  and  _343
REMARK  142  A    between atoms: _343  and  _344
REMARK  143  A    between atoms: _343  and  _346
REMARK  144  A    between atoms: _346  and  _347
REMARK  145  A    between atoms: _352  and  _353
REMARK  146  A    between atoms: _355  and  _357
REMARK  147  A    between atoms: _357  and  _358
REMARK  148  A    between atoms: _357  and  _360
REMARK  149  A    between atoms: _360  and  _361
REMARK  150  A    between atoms: _361  and  _362
REMARK  151  A    between atoms: _362  and  _363
REMARK  152  A    between atoms: _363  and  _364
REMARK                            x       y       z     vdW  Elec       q    Type
REMARK                         _______ _______ _______ _____ _____    ______ ____
ROOT
ATOM      1  C   VAL A   8      -6.920  -1.644 -11.462  0.00  0.00    +0.000 C 
ATOM      2  O   VAL A   8      -6.519  -0.507 -11.713  0.00  0.00    +0.000 OA
ATOM      3  N   UNK A   9      -7.369  -2.474 -12.396  0.00  0.00    +0.000 N 
ATOM      4  H   UNK A   9      -7.674  -3.427 -12.113  0.00  0.00    +0.000 HD
ENDROOT
BRANCH   1   5
ATOM      5  CA  VAL A   8      -6.928  -2.182 -10.026  0.00  0.00    +0.000 C 
BRANCH   5   7
ATOM      6  C   ALA A   7      -9.331  -2.043  -9.874  0.00  0.00    +0.000 C 
ATOM      7  N   VAL A   8      -8.231  -2.785  -9.749  0.00  0.00    +0.000 N 
ATOM      8  H   VAL A   8      -8.299  -3.781  -9.458  0.00  0.00    +0.000 HD
ATOM      9  O   ALA A   7      -9.290  -0.843 -10.151  0.00  0.00    +0.000 OA
BRANCH   6  10
ATOM     10  CA  ALA A   7     -10.681  -2.717  -9.667  0.00  0.00    +0.000 C 
ATOM     11  CB  ALA A   7     -11.120  -2.636  -8.211  0.00  0.00    +0.000 C 
BRANCH  10  13
ATOM     12  C   THR A   6     -10.608  -4.378 -11.435  0.00  0.00    +0.000 C 
ATOM     13  N   ALA A   7     -10.721  -4.090 -10.143  0.00  0.00    +0.000 N 
ATOM     14  H   ALA A   7     -10.841  -4.863  -9.458  0.00  0.00    +0.000 HD
ATOM     15  O   THR A   6     -10.482  -3.521 -12.316  0.00  0.00    +0.000 OA
BRANCH  12  16
ATOM     16  CA  THR A   6     -10.632  -5.862 -11.791  0.00  0.00    +0.000 C 
BRANCH  16  18
ATOM     17  C   LEU A   5      -8.522  -6.441 -10.736  0.00  0.00    +0.000 C 
ATOM     18  N   THR A   6      -9.831  -6.627 -10.848  0.00  0.00    +0.000 N 
ATOM     19  H   THR A   6     -10.296  -7.337 -10.247  0.00  0.00    +0.000 HD
ATOM     20  O   LEU A   5      -7.891  -5.642 -11.432  0.00  0.00    +0.000 OA
BRANCH  17  21
ATOM     21  CA  LEU A   5      -7.829  -7.295  -9.690  0.00  0.00    +0.000 C 
BRANCH  21  24
ATOM     22  C   PHE A   4      -8.855  -6.277  -7.748  0.00  0.00    +0.000 C 
ATOM     23  O   PHE A   4      -8.481  -5.157  -8.111  0.00  0.00    +0.000 OA
ATOM     24  N   LEU A   5      -8.619  -7.374  -8.463  0.00  0.00    +0.000 N 
ATOM     25  H   LEU A   5      -8.998  -8.290  -8.148  0.00  0.00    +0.000 HD
BRANCH  22  26
ATOM     26  CA  PHE A   4      -9.607  -6.451  -6.427  0.00  0.00    +0.000 C 
BRANCH  26  28
ATOM     27  C   UNK A   3     -11.760  -6.832  -7.490  0.00  0.00    +0.000 C 
ATOM     28  N   PHE A   4     -10.847  -7.196  -6.596  0.00  0.00    +0.000 N 
ATOM     29  H   PHE A   4     -11.022  -8.032  -6.003  0.00  0.00    +0.000 HD
ATOM     30  O   UNK A   3     -11.628  -5.849  -8.222  0.00  0.00    +0.000 OA
BRANCH  27  31
ATOM     31  C   UNK A   3     -13.019  -7.684  -7.576  0.00  0.00    +0.000 C 
BRANCH  31  33
ATOM     32  C   GLY A   2     -12.057  -9.637  -8.649  0.00  0.00    +0.000 C 
ATOM     33  N   UNK A   3     -12.729  -9.116  -7.624  0.00  0.00    +0.000 N 
ATOM     34  H   UNK A   3     -13.050  -9.733  -6.851  0.00  0.00    +0.000 HD
ATOM     35  O   GLY A   2     -11.603  -8.955  -9.574  0.00  0.00    +0.000 OA
BRANCH  32  36
ATOM     36  CA  GLY A   2     -11.865 -11.148  -8.644  0.00  0.00    +0.000 C 
BRANCH  36  39
ATOM     37  C   UNK A   1     -13.761 -11.877  -9.942  0.00  0.00    +0.000 C 
ATOM     38  O   UNK A   1     -14.542 -11.455  -9.092  0.00  0.00    +0.000 OA
ATOM     39  N   GLY A   2     -12.447 -11.757  -9.826  0.00  0.00    +0.000 N 
ATOM     40  H   GLY A   2     -11.828 -12.102 -10.587  0.00  0.00    +0.000 HD
BRANCH  37  41
ATOM     41  C   UNK A   1     -14.273 -12.591 -11.176  0.00  0.00    +0.000 C 
BRANCH  41  42
ATOM     42  C   UNK A   1     -14.992 -11.590 -12.103  0.00  0.00    +0.000 C 
ATOM     43  C   UNK A   1     -14.011 -10.578 -12.691  0.00  0.00    +0.000 C 
BRANCH  42  44
ATOM     44  O   UNK A   1     -15.611 -12.297 -13.182  0.00  0.00    +0.000 OA
ATOM     45  H   UNK A   1     -14.919 -12.784 -13.696  0.00  0.00    +0.000 HD
ENDBRANCH  42  44
ENDBRANCH  41  42
BRANCH  41  46
ATOM     46  N   UNK A   1     -15.171 -13.644 -10.715  0.00  0.00    +0.000 NA
ATOM     47  H   UNK A   1     -16.024 -13.378 -10.183  0.00  0.00    +0.000 HD
ENDBRANCH  41  46
ENDBRANCH  37  41
ENDBRANCH  36  39
BRANCH  36  48
ATOM     48  CB  GLY A   2     -10.393 -11.511  -8.538  0.00  0.00    +0.000 C 
BRANCH  48  49
ATOM     49  CG  GLY A   2      -9.783 -11.028  -7.260  0.00  0.00    +0.000 C 
ATOM     50  ND2 GLY A   2      -9.827 -11.867  -6.232  0.00  0.00    +0.000 N 
ATOM     51 HD21 GLY A   2      -9.419 -11.589  -5.316  0.00  0.00    +0.000 HD
ATOM     52 HD22 GLY A   2     -10.269 -12.802  -6.342  0.00  0.00    +0.000 HD
ATOM     53  OD1 GLY A   2      -9.274  -9.913  -7.187  0.00  0.00    +0.000 OA
ENDBRANCH  48  49
ENDBRANCH  36  48
ENDBRANCH  32  36
ENDBRANCH  31  33
BRANCH  31  54
ATOM     54  C   UNK A   3     -13.981  -7.347  -6.437  0.00  0.00    +0.000 C 
BRANCH  54  55
ATOM     55  C   UNK A   3     -14.354  -5.863  -6.299  0.00  0.00    +0.000 C 
ATOM     56  C   UNK A   3     -15.217  -5.650  -5.083  0.00  0.00    +0.000 C 
ATOM     57  C   UNK A   3     -15.058  -5.335  -7.550  0.00  0.00    +0.000 C 
ENDBRANCH  54  55
ENDBRANCH  31  54
ENDBRANCH  27  31
ENDBRANCH  26  28
BRANCH  26  58
ATOM     58  CB  PHE A   4      -8.709  -7.111  -5.370  0.00  0.00    +0.000 C 
BRANCH  58  59
ATOM     59  CG  PHE A   4      -7.276  -6.654  -5.422  0.00  0.00    +0.000 A 
ATOM     60  CD2 PHE A   4      -6.902  -5.413  -4.928  0.00  0.00    +0.000 A 
ATOM     61  CE2 PHE A   4      -5.576  -4.992  -4.992  0.00  0.00    +0.000 A 
ATOM     62  CZ  PHE A   4      -4.608  -5.820  -5.556  0.00  0.00    +0.000 A 
ATOM     63  CE1 PHE A   4      -4.976  -7.056  -6.060  0.00  0.00    +0.000 A 
ATOM     64  CD1 PHE A   4      -6.304  -7.466  -5.989  0.00  0.00    +0.000 A 
ENDBRANCH  58  59
ENDBRANCH  26  58
ENDBRANCH  22  26
ENDBRANCH  21  24
BRANCH  21  65
ATOM     65  CB  LEU A   5      -7.575  -8.684 -10.264  0.00  0.00    +0.000 C 
BRANCH  65  66
ATOM     66  CG  LEU A   5      -6.645  -9.609  -9.482  0.00  0.00    +0.000 C 
ATOM     67  CD2 LEU A   5      -5.222  -9.069  -9.426  0.00  0.00    +0.000 C 
ATOM     68  CD1 LEU A   5      -6.662 -10.999 -10.087  0.00  0.00    +0.000 C 
ENDBRANCH  65  66
ENDBRANCH  21  65
ENDBRANCH  17  21
ENDBRANCH  16  18
BRANCH  16  69
ATOM     69  CB  THR A   6     -12.072  -6.397 -11.847  0.00  0.00    +0.000 C 
ATOM     70  CG2 THR A   6     -12.862  -5.697 -12.925  0.00  0.00    +0.000 C 
BRANCH  69  71
ATOM     71  OG1 THR A   6     -12.044  -7.793 -12.157  0.00  0.00    +0.000 OA
ATOM     72  HG1 THR A   6     -11.537  -8.275 -11.457  0.00  0.00    +0.000 HD
ENDBRANCH  69  71
ENDBRANCH  16  69
ENDBRANCH  12  16
ENDBRANCH  10  13
ENDBRANCH   6  10
ENDBRANCH   5   7
BRANCH   5  73
ATOM     73  CB  VAL A   8      -5.761  -3.171  -9.813  0.00  0.00    +0.000 C 
ATOM     74  CG2 VAL A   8      -5.633  -3.544  -8.343  0.00  0.00    +0.000 C 
ATOM     75  CG1 VAL A   8      -4.453  -2.564 -10.311  0.00  0.00    +0.000 C 
ENDBRANCH   5  73
ENDBRANCH   1   5
BRANCH   3  76
ATOM     76  C   UNK A   9      -7.451  -2.101 -13.807  0.00  0.00    +0.000 C 
BRANCH  76  77
ATOM     77  C   UNK A   9      -8.396  -0.913 -14.023  0.00  0.00    +0.000 C 
ATOM     78  N   GLU A  10      -9.595  -0.983 -13.452  0.00  0.00    +0.000 N 
ATOM     79  H   GLU A  10      -9.843  -1.810 -12.873  0.00  0.00    +0.000 HD
ATOM     80  O   UNK A   9      -8.033   0.065 -14.679  0.00  0.00    +0.000 OA
BRANCH  78  81
ATOM     81  CA  GLU A  10     -10.565   0.093 -13.632  0.00  0.00    +0.000 C 
BRANCH  81  82
ATOM     82  C   GLU A  10     -10.076   1.408 -13.056  0.00  0.00    +0.000 C 
ATOM     83  N   ILE A  11      -9.490   1.362 -11.865  0.00  0.00    +0.000 N 
ATOM     84  H   ILE A  11      -9.409   0.455 -11.363  0.00  0.00    +0.000 HD
ATOM     85  O   GLU A  10     -10.234   2.451 -13.682  0.00  0.00    +0.000 OA
BRANCH  83  86
ATOM     86  CA  ILE A  11      -8.960   2.576 -11.258  0.00  0.00    +0.000 C 
BRANCH  86  87
ATOM     87  C   ILE A  11      -7.832   3.154 -12.115  0.00  0.00    +0.000 C 
ATOM     88  O   ILE A  11      -7.691   4.368 -12.219  0.00  0.00    +0.000 OA
ENDBRANCH  86  87
BRANCH  86  89
ATOM     89  CB  ILE A  11      -8.556   2.369  -9.782  0.00  0.00    +0.000 C 
ATOM     90  CG2 ILE A  11      -7.795   3.579  -9.240  0.00  0.00    +0.000 C 
BRANCH  89  91
ATOM     91  CG1 ILE A  11      -9.810   2.119  -8.933  0.00  0.00    +0.000 C 
ATOM     92  CD1 ILE A  11      -9.527   1.456  -7.604  0.00  0.00    +0.000 C 
ENDBRANCH  89  91
ENDBRANCH  86  89
ENDBRANCH  83  86
ENDBRANCH  81  82
BRANCH  81  93
ATOM     93  CB  GLU A  10     -11.920  -0.274 -13.029  0.00  0.00    +0.000 C 
BRANCH  93  94
ATOM     94  CG  GLU A  10     -12.629  -1.420 -13.737  0.00  0.00    +0.000 C 
BRANCH  94  95
ATOM     95  CD  GLU A  10     -12.659  -1.257 -15.241  0.00  0.00    +0.000 C 
ATOM     96  OE2 GLU A  10     -12.992  -0.157 -15.725  0.00  0.00    +0.000 OA
ATOM     97  OE1 GLU A  10     -12.332  -2.233 -15.947  0.00  0.00    +0.000 OA
ENDBRANCH  94  95
ENDBRANCH  93  94
ENDBRANCH  81  93
ENDBRANCH  78  81
ENDBRANCH  76  77
BRANCH  76  98
ATOM     98  C   UNK A   9      -7.887  -3.331 -14.604  0.00  0.00    +0.000 C 
BRANCH  98  99
ATOM     99  C   UNK A   9      -8.113  -3.090 -16.067  0.00  0.00    +0.000 A 
ATOM    100  C   UNK A   9      -9.133  -2.491 -16.722  0.00  0.00    +0.000 A 
ATOM    101  N   UNK A   9      -8.871  -2.590 -18.067  0.00  0.00    +0.000 N 
ATOM    102  C   UNK A   9      -7.732  -3.236 -18.233  0.00  0.00    +0.000 A 
ATOM    103  N   UNK A   9      -7.258  -3.558 -17.042  0.00  0.00    +0.000 NA
BRANCH 101 104
ATOM    104 ZN   UNK A   9     -10.035  -1.629 -19.456  0.00  0.00    +0.000 Zn
BRANCH 104 105
ATOM    105  N   UNK A   9      -8.878  -1.607 -21.174  0.00  0.00    +0.000 N 
ATOM    106  C   UNK A   9      -7.518  -1.421 -21.228  0.00  0.00    +0.000 A 
ATOM    107  C   UNK A   9      -7.185  -1.265 -22.531  0.00  0.00    +0.000 A 
ATOM    108  N   UNK A   9      -8.362  -1.344 -23.239  0.00  0.00    +0.000 NA
ATOM    109  C   UNK A   9      -9.362  -1.554 -22.401  0.00  0.00    +0.000 A 
BRANCH 107 110
ATOM    110  C   UNK A   9      -5.863  -1.015 -23.177  0.00  0.00    +0.000 C 
BRANCH 110 111
ATOM    111  C   UNK A   9      -4.922  -0.191 -22.309  0.00  0.00    +0.000 C 
BRANCH 111 112
ATOM    112  N   UNK A   9      -5.338   1.197 -22.269  0.00  0.00    +0.000 N 
ATOM    113  C   GLY A   2      -4.991   1.993 -21.267  0.00  0.00    +0.000 C 
ATOM    114  O   GLY A   2      -4.307   1.611 -20.306  0.00  0.00    +0.000 OA
ATOM    115  H   UNK A   9      -5.921   1.576 -23.042  0.00  0.00    +0.000 HD
BRANCH 113 116
ATOM    116  CA  GLY A   2      -5.488   3.420 -21.369  0.00  0.00    +0.000 C 
BRANCH 116 117
ATOM    117  N   GLY A   2      -4.853   4.247 -20.361  0.00  0.00    +0.000 N 
ATOM    118  C   UNK A   1      -5.443   4.531 -19.208  0.00  0.00    +0.000 C 
ATOM    119  O   UNK A   1      -6.634   4.290 -18.963  0.00  0.00    +0.000 OA
ATOM    120  H   GLY A   2      -3.904   4.630 -20.549  0.00  0.00    +0.000 HD
BRANCH 118 121
ATOM    121  C   UNK A   1      -4.539   5.167 -18.175  0.00  0.00    +0.000 C 
BRANCH 121 122
ATOM    122  N   UNK A   1      -5.234   6.174 -17.379  0.00  0.00    +0.000 NA
ATOM    123  H   UNK A   1      -5.560   5.931 -16.422  0.00  0.00    +0.000 HD
ENDBRANCH 121 122
BRANCH 121 124
ATOM    124  C   UNK A   1      -3.965   4.059 -17.300  0.00  0.00    +0.000 C 
BRANCH 124 125
ATOM    125  C   UNK A   1      -2.804   4.398 -16.372  0.00  0.00    +0.000 C 
ATOM    126  C   UNK A   1      -2.452   3.192 -15.524  0.00  0.00    +0.000 C 
ATOM    127  C   UNK A   1      -1.589   4.873 -17.160  0.00  0.00    +0.000 C 
ENDBRANCH 124 125
ENDBRANCH 121 124
ENDBRANCH 118 121
ENDBRANCH 116 117
ENDBRANCH 113 116
ENDBRANCH 111 112
BRANCH 111 128
ATOM    128  C   UNK A   9      -3.495  -0.372 -22.776  0.00  0.00    +0.000 C 
ATOM    129  O   UNK A   3      -2.975   0.418 -23.559  0.00  0.00    +0.000 OA
ENDBRANCH 111 128
ENDBRANCH 110 111
ENDBRANCH 107 110
ENDBRANCH 104 105
BRANCH 104 130
ATOM    130  N   UNK A   1      -9.616   0.355 -18.879  0.00  0.00    +0.000 N 
ATOM    131  C   UNK A   1     -10.193   0.998 -17.812  0.00  0.00    +0.000 A 
ATOM    132  C   UNK A   1      -9.610   2.214 -17.706  0.00  0.00    +0.000 A 
ATOM    133  N   UNK A   1      -8.691   2.288 -18.732  0.00  0.00    +0.000 NA
ATOM    134  C   UNK A   1      -8.709   1.154 -19.414  0.00  0.00    +0.000 A 
BRANCH 132 135
ATOM    135  C   UNK A   1      -9.897   3.340 -16.762  0.00  0.00    +0.000 C 
BRANCH 135 136
ATOM    136  C   UNK A   1      -8.667   4.069 -16.221  0.00  0.00    +0.000 C 
BRANCH 136 137
ATOM    137  C   UNK A   1      -9.155   5.350 -15.530  0.00  0.00    +0.000 C 
ATOM    138  N   GLY A   2      -9.670   5.231 -14.308  0.00  0.00    +0.000 N 
ATOM    139  H   GLY A   2      -9.736   4.285 -13.880  0.00  0.00    +0.000 HD
ATOM    140  O   UNK A   1      -9.084   6.428 -16.111  0.00  0.00    +0.000 OA
BRANCH 138 141
ATOM    141  CA  GLY A   2     -10.149   6.392 -13.544  0.00  0.00    +0.000 C 
BRANCH 141 142
ATOM    142  CB  GLY A   2      -9.070   7.454 -13.345  0.00  0.00    +0.000 C 
ATOM    143  O   GLY A   2      -9.385   8.624 -13.123  0.00  0.00    +0.000 OA
ENDBRANCH 141 142
BRANCH 141 144
ATOM    144  C   GLY A   2     -10.649   5.967 -12.167  0.00  0.00    +0.000 C 
BRANCH 144 145
ATOM    145  O   GLY A   2     -11.739   5.070 -12.247  0.00  0.00    +0.000 OA
ATOM    146  H   GLY A   2     -12.488   5.505 -12.726  0.00  0.00    +0.000 HD
ENDBRANCH 144 145
ENDBRANCH 141 144
ENDBRANCH 138 141
ENDBRANCH 136 137
BRANCH 136 147
ATOM    147  N   UNK A   1      -7.873   3.224 -15.329  0.00  0.00    +0.000 NA
ATOM    148  H   UNK A   1      -8.186   2.252 -15.132  0.00  0.00    +0.000 HD
ENDBRANCH 136 147
ENDBRANCH 135 136
ENDBRANCH 132 135
ENDBRANCH 104 130
ENDBRANCH 101 104
ENDBRANCH  98  99
ENDBRANCH  76  98
ENDBRANCH   3  76
TORSDOF 63
REMARK  Name = ../refined-set-2016/3f18/3f18_pocket.pdb
REMARK  152 active torsions:
REMARK  status: ('A' for Active; 'I' for Inactive)
REMARK    1  A    between atoms: _1  and  _3
REMARK    2  A    between atoms: _3  and  _4
REMARK    3  A    between atoms: _3  and  _6
REMARK    4  A    between atoms: _6  and  _7
REMARK    5  A    between atoms: _13  and  _15
REMARK    6  A    between atoms: _15  and  _16
REMARK    7  A    between atoms: _15  and  _18
REMARK    8  A    between atoms: _18  and  _19
REMARK    9  A    between atoms: _22  and  _24
REMARK   10  A    between atoms: _24  and  _25
REMARK   11  A    between atoms: _27  and  _29
REMARK   12  A    between atoms: _29  and  _30
REMARK   13  A    between atoms: _32  and  _34
REMARK   14  A    between atoms: _34  and  _35
REMARK   15  A    between atoms: _34  and  _37
REMARK   16  A    between atoms: _35  and  _36
REMARK   17  A    between atoms: _35  and  _41
REMARK   18  A    between atoms: _36  and  CA_369
REMARK   19  A    between atoms: _37  and  _38
REMARK   20  A    between atoms: _41  and  _43
REMARK   21  A    between atoms: _43  and  _44
REMARK   22  A    between atoms: _43  and  _46
REMARK   23  A    between atoms: _46  and  _47
REMARK   24  A    between atoms: _50  and  _52
REMARK   25  A    between atoms: _52  and  _53
REMARK   26  A    between atoms: _56  and  _58
REMARK   27  A    between atoms: _58  and  _59
REMARK   28  A    between atoms: _58  and  _61
REMARK   29  A    between atoms: _61  and  _62
REMARK   30  A    between atoms: _67  and  _69
REMARK   31  A    between atoms: _69  and  _70
REMARK   32  A    between atoms: _73  and  _75
REMARK   33  A    between atoms: _75  and  _76
REMARK   34  A    between atoms: _75  and  _78
REMARK   35  A    between atoms: _78  and  _79
REMARK   36  A    between atoms: _85  and  _87
REMARK   37  A    between atoms: _87  and  _88
REMARK   38  A    between atoms: _87  and  _90
REMARK   39  A    between atoms: _90  and  _91
REMARK   40  A    between atoms: _96  and  _98
REMARK   41  A    between atoms: _98  and  _99
REMARK   42  A    between atoms: _98  and  _101
REMARK   43  A    between atoms: _101  and  _102
REMARK   44  A    between atoms: _108  and  _110
REMARK   45  A    between atoms: _110  and  _111
REMARK   46  A    between atoms: _110  and  _113
REMARK   47  A    between atoms: _113  and  _114
REMARK   48  A    between atoms: _117  and  _119
REMARK   49  A    between atoms: _119  and  _120
REMARK   50  A    between atoms: _119  and  _122
REMARK   51  A    between atoms: _122  and  _123
REMARK   52  A    between atoms: _123  and  _124
REMARK   53  A    between atoms: _124  and  _126
REMARK   54  A    between atoms: _126  and  CA_369
REMARK   55  A    between atoms: _127  and  _129
REMARK   56  A    between atoms: _129  and  _130
REMARK   57  A    between atoms: _129  and  _132
REMARK   58  A    between atoms: _132  and  _133
REMARK   59  A    between atoms: _143  and  _145
REMARK   60  A    between atoms: _145  and  _146
REMARK   61  A    between atoms: _145  and  _148
REMARK   62  A    between atoms: _148  and  _149
REMARK   63  A    between atoms: _152  and  _154
REMARK   64  A    between atoms: _154  and  _155
REMARK   65  A    between atoms: _154  and  _157
REMARK   66  A    between atoms: _157  and  _158
REMARK   67  A    between atoms: _163  and  _165
REMARK   68  A    between atoms: _165  and  _166
REMARK   69  A    between atoms: _165  and  _168
REMARK   70  A    between atoms: _168  and  _169
REMARK   71  A    between atoms: _172  and  _174
REMARK   72  A    between atoms: _174  and  _175
REMARK   73  A    between atoms: _174  and  _177
REMARK   74  A    between atoms: _177  and  _178
REMARK   75  A    between atoms: _184  and  _186
REMARK   76  A    between atoms: _186  and  _187
REMARK   77  A    between atoms: _186  and  _189
REMARK   78  A    between atoms: _189  and  _190
REMARK   79  A    between atoms: _193  and  _195
REMARK   80  A    between atoms: _195  and  _196
REMARK   81  A    between atoms: _195  and  _198
REMARK   82  A    between atoms: _198  and  _199
REMARK   83  A    between atoms: _202  and  _204
REMARK   84  A    between atoms: _204  and  _205
REMARK   85  A    between atoms: _208  and  _210
REMARK   86  A    between atoms: _210  and  _211
REMARK   87  A    between atoms: _210  and  _213
REMARK   88  A    between atoms: _216  and  _218
REMARK   89  A    between atoms: _218  and  _219
REMARK   90  A    between atoms: _218  and  _221
REMARK   91  A    between atoms: _221  and  _222
REMARK   92  A    between atoms: _226  and  ZN_368
REMARK   93  A    between atoms: _227  and  _229
REMARK   94  A    between atoms: _229  and  _230
REMARK   95  A    between atoms: _229  and  _232
REMARK   96  A    between atoms: _232  and  _233
REMARK   97  A    between atoms: _233  and  _234
REMARK   98  A    between atoms: _237  and  _239
REMARK   99  A    between atoms: _239  and  _240
REMARK  100  A    between atoms: _239  and  _242
REMARK  101  A    between atoms: _242  and  _243
REMARK  102  A    between atoms: _246  and  _248
REMARK  103  A    between atoms: _248  and  _249
REMARK  104  A    between atoms: _248  and  _251
REMARK  105  A    between atoms: _251  and  _252
REMARK  106  A    between atoms: _256  and  ZN_368
REMARK  107  A    between atoms: _257  and  _259
REMARK  108  A    between atoms: _259  and  _260
REMARK  109  A    between atoms: _259  and  _262
REMARK  110  A    between atoms: _262  and  _263
REMARK  111  A    between atoms: _265  and  _267
REMARK  112  A    between atoms: _267  and  _268
REMARK  113  A    between atoms: _267  and  _270
REMARK  114  A    between atoms: _270  and  _271
REMARK  115  A    between atoms: _274  and  _276
REMARK  116  A    between atoms: _276  and  _277
REMARK  117  A    between atoms: _279  and  _281
REMARK  118  A    between atoms: _281  and  _282
REMARK  119  A    between atoms: _281  and  _284
REMARK  120  A    between atoms: _284  and  _285
REMARK  121  A    between atoms: _289  and  ZN_368
REMARK  122  A    between atoms: _290  and  _292
REMARK  123  A    between atoms: _292  and  _293
REMARK  124  A    between atoms: _296  and  _298
REMARK  125  A    between atoms: _298  and  _299
REMARK  126  A    between atoms: _298  and  _301
REMARK  127  A    between atoms: _304  and  _306
REMARK  128  A    between atoms: _306  and  _307
REMARK  129  A    between atoms: _306  and  _309
REMARK  130  A    between atoms: _309  and  _310
REMARK  131  A    between atoms: _310  and  _311
REMARK  132  A    between atoms: _313  and  _315
REMARK  133  A    between atoms: _315  and  _316
REMARK  134  A    between atoms: _315  and  _318
REMARK  135  A    between atoms: _318  and  _319
REMARK  136  A    between atoms: _326  and  _327
REMARK  137  A    between atoms: _332  and  _334
REMARK  138  A    between atoms: _334  and  _335
REMARK  139  A    between atoms: _334  and  _337
REMARK  140  A    between atoms: _337  and  _338
REMARK  141  A    between atoms: _341  and  _343
REMARK  142  A    between atoms: _343  and  _344
REMARK  143  A    between atoms: _343  and  _346
REMARK  144  A    between atoms: _346  and  _347
REMARK  145  A    between atoms: _352  and  _353
REMARK  146  A    between atoms: _355  and  _357
REMARK  147  A    between atoms: _357  and  _358
REMARK  148  A    between atoms: _357  and  _360
REMARK  149  A    between atoms: _360  and  _361
REMARK  150  A    between atoms: _361  and  _362
REMARK  151  A    between atoms: _362  and  _363
REMARK  152  A    between atoms: _363  and  _364
REMARK                            x       y       z     vdW  Elec       q    Type
REMARK                         _______ _______ _______ _____ _____    ______ ____
ROOT
ATOM      1  C   PHE A   4      -5.397  -5.605 -20.673  0.00  0.00    +0.244 C 
ATOM      2  O   PHE A   4      -6.017  -5.797 -19.629  0.00  0.00    -0.273 OA
ATOM      3  N   PRO A   5      -6.001  -5.523 -21.876  0.00  0.00    -0.272 N 
ATOM      4  CA  PRO A   5      -7.459  -5.582 -22.001  0.00  0.00    +0.152 C 
ATOM      5  CB  PRO A   5      -7.682  -5.382 -23.507  0.00  0.00    +0.031 C 
ATOM      6  CG  PRO A   5      -6.467  -4.685 -23.986  0.00  0.00    +0.024 C 
ATOM      7  CD  PRO A   5      -5.368  -5.304 -23.190  0.00  0.00    +0.094 C 
ENDROOT
BRANCH   4   8
ATOM      8  C   PRO A   5      -8.145  -6.878 -21.545  0.00  0.00    +0.241 C 
ATOM      9  N   THR A   6      -7.384  -7.941 -21.300  0.00  0.00    -0.295 N 
ATOM     10  H   THR A   6      -6.349  -7.848 -21.341  0.00  0.00    +0.150 HD
ATOM     11  O   PRO A   5      -9.366  -6.897 -21.420  0.00  0.00    -0.273 OA
BRANCH   9  12
ATOM     12  CA  THR A   6      -7.977  -9.240 -20.973  0.00  0.00    +0.176 C 
BRANCH  12  13
ATOM     13  C   THR A   6      -7.840  -9.574 -19.495  0.00  0.00    +0.243 C 
ATOM     14  N   TYR A   7      -8.958  -9.929 -18.868  0.00  0.00    -0.297 N 
ATOM     15  H   TYR A   7      -9.864  -9.886 -19.378  0.00  0.00    +0.150 HD
ATOM     16  O   THR A   6      -6.739  -9.522 -18.943  0.00  0.00    -0.273 OA
BRANCH  14  17
ATOM     17  CA  TYR A   7      -8.940 -10.377 -17.481  0.00  0.00    +0.153 C 
BRANCH  17  18
ATOM     18  C   TYR A   7      -8.362 -11.784 -17.356  0.00  0.00    +0.241 C 
ATOM     19  N   LYS A   8      -7.455 -11.949 -16.398  0.00  0.00    -0.298 N 
ATOM     20  H   LYS A   8      -7.104 -11.108 -15.897  0.00  0.00    +0.150 HD
ATOM     21  O   TYR A   7      -8.737 -12.690 -18.101  0.00  0.00    -0.273 OA
BRANCH  19  22
ATOM     22  CA  LYS A   8      -6.931 -13.254 -16.018  0.00  0.00    +0.137 C 
BRANCH  22  23
ATOM     23  C   LYS A   8      -6.586 -13.206 -14.537  0.00  0.00    +0.227 C 
ATOM     24  O   LYS A   8      -5.922 -12.266 -14.085  0.00  0.00    -0.286 OA
ENDBRANCH  22  23
BRANCH  22  25
ATOM     25  CB  LYS A   8      -5.685 -13.597 -16.837  0.00  0.00    +0.028 C 
BRANCH  25  26
ATOM     26  CG  LYS A   8      -5.233 -15.043 -16.709  0.00  0.00    -0.000 C 
BRANCH  26  27
ATOM     27  CD  LYS A   8      -3.870 -15.250 -17.346  0.00  0.00    -0.024 C 
BRANCH  27  28
ATOM     28  CE  LYS A   8      -3.559 -16.729 -17.543  0.00  0.00    -0.086 C 
BRANCH  28  29
ATOM     29  NZ  LYS A   8      -3.403 -17.466 -16.257  0.00  0.00    +0.380 N 
ATOM     30  HZ1 LYS A   8      -4.285 -17.398 -15.710  0.00  0.00    -0.089 HD
ATOM     31  HZ2 LYS A   8      -2.622 -17.048 -15.712  0.00  0.00    -0.089 HD
ATOM     32  HZ3 LYS A   8      -3.193 -18.465 -16.455  0.00  0.00    -0.089 HD
ENDBRANCH  28  29
ENDBRANCH  27  28
ENDBRANCH  26  27
ENDBRANCH  25  26
ENDBRANCH  22  25
ENDBRANCH  19  22
ENDBRANCH  17  18
BRANCH  17  33
ATOM     33  CB  TYR A   7     -10.340 -10.335 -16.860  0.00  0.00    +0.055 C 
BRANCH  33  34
ATOM     34  CG  TYR A   7     -10.393 -10.971 -15.485  0.00  0.00    -0.020 A 
ATOM     35  CD2 TYR A   7     -10.066 -10.238 -14.344  0.00  0.00    -0.001 A 
ATOM     36  CE2 TYR A   7     -10.096 -10.820 -13.084  0.00  0.00    +0.036 A 
ATOM     37  CZ  TYR A   7     -10.449 -12.152 -12.957  0.00  0.00    +0.134 A 
ATOM     38  CE1 TYR A   7     -10.776 -12.906 -14.076  0.00  0.00    +0.036 A 
ATOM     39  CD1 TYR A   7     -10.745 -12.312 -15.329  0.00  0.00    -0.001 A 
BRANCH  37  40
ATOM     40  OH  TYR A   7     -10.480 -12.730 -11.712  0.00  0.00    -0.506 OA
ATOM     41  HH  TYR A   7     -11.395 -13.057 -11.524  0.00  0.00    +0.292 HD
ENDBRANCH  37  40
ENDBRANCH  33  34
ENDBRANCH  17  33
ENDBRANCH  14  17
ENDBRANCH  12  13
BRANCH  12  42
ATOM     42  CB  THR A   6      -7.343 -10.375 -21.803  0.00  0.00    +0.137 C 
ATOM     43  CG2 THR A   6      -8.144 -11.668 -21.668  0.00  0.00    +0.034 C 
BRANCH  42  44
ATOM     44  OG1 THR A   6      -7.301  -9.989 -23.180  0.00  0.00    -0.382 OA
ATOM     45  HG1 THR A   6      -8.221  -9.817 -23.502  0.00  0.00    +0.210 HD
ENDBRANCH  42  44
ENDBRANCH  12  42
ENDBRANCH   9  12
ENDBRANCH   4   8
BRANCH   1  46
ATOM     46  CA  PHE A   4      -3.890  -5.390 -20.628  0.00  0.00    +0.153 C 
BRANCH  46  48
ATOM     47  C   MET A   3      -4.092  -3.324 -19.349  0.00  0.00    +0.241 C 
ATOM     48  N   PHE A   4      -3.604  -4.562 -19.455  0.00  0.00    -0.297 N 
ATOM     49  H   PHE A   4      -3.011  -4.945 -18.691  0.00  0.00    +0.150 HD
ATOM     50  O   MET A   3      -4.684  -2.762 -20.276  0.00  0.00    -0.273 OA
BRANCH  47  51
ATOM     51  CA  MET A   3      -3.901  -2.599 -18.014  0.00  0.00    +0.149 C 
BRANCH  51  54
ATOM     52  C   VAL A   2      -3.676  -4.302 -16.266  0.00  0.00    +0.241 C 
ATOM     53  O   VAL A   2      -4.864  -4.602 -16.313  0.00  0.00    -0.273 OA
ATOM     54  N   MET A   3      -3.123  -3.357 -17.029  0.00  0.00    -0.297 N 
ATOM     55  H   MET A   3      -2.109  -3.152 -16.922  0.00  0.00    +0.150 HD
BRANCH  52  56
ATOM     56  CA  VAL A   2      -2.735  -5.048 -15.317  0.00  0.00    +0.148 C 
BRANCH  56  58
ATOM     57  C   ALA A   1      -1.102  -5.655 -17.002  0.00  0.00    +0.238 C 
ATOM     58  N   VAL A   2      -1.378  -5.036 -15.856  0.00  0.00    -0.297 N 
ATOM     59  H   VAL A   2      -0.622  -4.541 -15.341  0.00  0.00    +0.150 HD
ATOM     60  O   ALA A   1      -1.931  -6.333 -17.609  0.00  0.00    -0.274 OA
BRANCH  57  61
ATOM     61  CA  ALA A   1       0.308  -5.473 -17.550  0.00  0.00    +0.145 C 
ATOM     62  CB  ALA A   1       0.345  -4.314 -18.535  0.00  0.00    +0.028 C 
BRANCH  61  63
ATOM     63  N   ALA A   1       0.820  -6.685 -18.182  0.00  0.00    -0.238 NA
ATOM     64  H   ALA A   1       0.779  -6.765 -19.218  0.00  0.00    +0.142 HD
ENDBRANCH  61  63
ENDBRANCH  57  61
ENDBRANCH  56  58
BRANCH  56  65
ATOM     65  CB  VAL A   2      -2.816  -4.493 -13.866  0.00  0.00    +0.027 C 
ATOM     66  CG2 VAL A   2      -4.058  -5.033 -13.165  0.00  0.00    +0.002 C 
ATOM     67  CG1 VAL A   2      -2.788  -2.963 -13.844  0.00  0.00    +0.002 C 
ENDBRANCH  56  65
ENDBRANCH  52  56
ENDBRANCH  51  54
BRANCH  51  68
ATOM     68  CB  MET A   3      -3.314  -1.201 -18.241  0.00  0.00    +0.041 C 
BRANCH  68  69
ATOM     69  CG  MET A   3      -3.329  -0.299 -17.000  0.00  0.00    +0.060 C 
BRANCH  69  70
ATOM     70  SD  MET A   3      -4.896  -0.272 -16.089  0.00  0.00    -0.139 S 
ATOM     71  CE  MET A   3      -6.031   0.355 -17.331  0.00  0.00    +0.069 C 
ENDBRANCH  69  70
ENDBRANCH  68  69
ENDBRANCH  51  68
ENDBRANCH  47  51
ENDBRANCH  46  48
BRANCH  46  72
ATOM     72  CB  PHE A   4      -3.159  -6.734 -20.538  0.00  0.00    +0.055 C 
BRANCH  72  73
ATOM     73  CG  PHE A   4      -3.255  -7.579 -21.788  0.00  0.00    -0.020 A 
ATOM     74  CD2 PHE A   4      -3.981  -8.767 -21.788  0.00  0.00    -0.004 A 
ATOM     75  CE2 PHE A   4      -4.061  -9.556 -22.939  0.00  0.00    -0.000 A 
ATOM     76  CZ  PHE A   4      -3.412  -9.154 -24.095  0.00  0.00    -0.000 A 
ATOM     77  CE1 PHE A   4      -2.677  -7.983 -24.109  0.00  0.00    -0.000 A 
ATOM     78  CD1 PHE A   4      -2.598  -7.198 -22.957  0.00  0.00    -0.004 A 
ENDBRANCH  72  73
ENDBRANCH  46  72
ENDBRANCH   1  46
TORSDOF 31
REMARK  Name = ../refined-set-2016/3f18/3f18_pocket.pdb
REMARK  152 active torsions:
REMARK  status: ('A' for Active; 'I' for Inactive)
REMARK    1  A    between atoms: _1  and  _3
REMARK    2  A    between atoms: _3  and  _4
REMARK    3  A    between atoms: _3  and  _6
REMARK    4  A    between atoms: _6  and  _7
REMARK    5  A    between atoms: _13  and  _15
REMARK    6  A    between atoms: _15  and  _16
REMARK    7  A    between atoms: _15  and  _18
REMARK    8  A    between atoms: _18  and  _19
REMARK    9  A    between atoms: _22  and  _24
REMARK   10  A    between atoms: _24  and  _25
REMARK   11  A    between atoms: _27  and  _29
REMARK   12  A    between atoms: _29  and  _30
REMARK   13  A    between atoms: _32  and  _34
REMARK   14  A    between atoms: _34  and  _35
REMARK   15  A    between atoms: _34  and  _37
REMARK   16  A    between atoms: _35  and  _36
REMARK   17  A    between atoms: _35  and  _41
REMARK   18  A    between atoms: _36  and  CA_369
REMARK   19  A    between atoms: _37  and  _38
REMARK   20  A    between atoms: _41  and  _43
REMARK   21  A    between atoms: _43  and  _44
REMARK   22  A    between atoms: _43  and  _46
REMARK   23  A    between atoms: _46  and  _47
REMARK   24  A    between atoms: _50  and  _52
REMARK   25  A    between atoms: _52  and  _53
REMARK   26  A    between atoms: _56  and  _58
REMARK   27  A    between atoms: _58  and  _59
REMARK   28  A    between atoms: _58  and  _61
REMARK   29  A    between atoms: _61  and  _62
REMARK   30  A    between atoms: _67  and  _69
REMARK   31  A    between atoms: _69  and  _70
REMARK   32  A    between atoms: _73  and  _75
REMARK   33  A    between atoms: _75  and  _76
REMARK   34  A    between atoms: _75  and  _78
REMARK   35  A    between atoms: _78  and  _79
REMARK   36  A    between atoms: _85  and  _87
REMARK   37  A    between atoms: _87  and  _88
REMARK   38  A    between atoms: _87  and  _90
REMARK   39  A    between atoms: _90  and  _91
REMARK   40  A    between atoms: _96  and  _98
REMARK   41  A    between atoms: _98  and  _99
REMARK   42  A    between atoms: _98  and  _101
REMARK   43  A    between atoms: _101  and  _102
REMARK   44  A    between atoms: _108  and  _110
REMARK   45  A    between atoms: _110  and  _111
REMARK   46  A    between atoms: _110  and  _113
REMARK   47  A    between atoms: _113  and  _114
REMARK   48  A    between atoms: _117  and  _119
REMARK   49  A    between atoms: _119  and  _120
REMARK   50  A    between atoms: _119  and  _122
REMARK   51  A    between atoms: _122  and  _123
REMARK   52  A    between atoms: _123  and  _124
REMARK   53  A    between atoms: _124  and  _126
REMARK   54  A    between atoms: _126  and  CA_369
REMARK   55  A    between atoms: _127  and  _129
REMARK   56  A    between atoms: _129  and  _130
REMARK   57  A    between atoms: _129  and  _132
REMARK   58  A    between atoms: _132  and  _133
REMARK   59  A    between atoms: _143  and  _145
REMARK   60  A    between atoms: _145  and  _146
REMARK   61  A    between atoms: _145  and  _148
REMARK   62  A    between atoms: _148  and  _149
REMARK   63  A    between atoms: _152  and  _154
REMARK   64  A    between atoms: _154  and  _155
REMARK   65  A    between atoms: _154  and  _157
REMARK   66  A    between atoms: _157  and  _158
REMARK   67  A    between atoms: _163  and  _165
REMARK   68  A    between atoms: _165  and  _166
REMARK   69  A    between atoms: _165  and  _168
REMARK   70  A    between atoms: _168  and  _169
REMARK   71  A    between atoms: _172  and  _174
REMARK   72  A    between atoms: _174  and  _175
REMARK   73  A    between atoms: _174  and  _177
REMARK   74  A    between atoms: _177  and  _178
REMARK   75  A    between atoms: _184  and  _186
REMARK   76  A    between atoms: _186  and  _187
REMARK   77  A    between atoms: _186  and  _189
REMARK   78  A    between atoms: _189  and  _190
REMARK   79  A    between atoms: _193  and  _195
REMARK   80  A    between atoms: _195  and  _196
REMARK   81  A    between atoms: _195  and  _198
REMARK   82  A    between atoms: _198  and  _199
REMARK   83  A    between atoms: _202  and  _204
REMARK   84  A    between atoms: _204  and  _205
REMARK   85  A    between atoms: _208  and  _210
REMARK   86  A    between atoms: _210  and  _211
REMARK   87  A    between atoms: _210  and  _213
REMARK   88  A    between atoms: _216  and  _218
REMARK   89  A    between atoms: _218  and  _219
REMARK   90  A    between atoms: _218  and  _221
REMARK   91  A    between atoms: _221  and  _222
REMARK   92  A    between atoms: _226  and  ZN_368
REMARK   93  A    between atoms: _227  and  _229
REMARK   94  A    between atoms: _229  and  _230
REMARK   95  A    between atoms: _229  and  _232
REMARK   96  A    between atoms: _232  and  _233
REMARK   97  A    between atoms: _233  and  _234
REMARK   98  A    between atoms: _237  and  _239
REMARK   99  A    between atoms: _239  and  _240
REMARK  100  A    between atoms: _239  and  _242
REMARK  101  A    between atoms: _242  and  _243
REMARK  102  A    between atoms: _246  and  _248
REMARK  103  A    between atoms: _248  and  _249
REMARK  104  A    between atoms: _248  and  _251
REMARK  105  A    between atoms: _251  and  _252
REMARK  106  A    between atoms: _256  and  ZN_368
REMARK  107  A    between atoms: _257  and  _259
REMARK  108  A    between atoms: _259  and  _260
REMARK  109  A    between atoms: _259  and  _262
REMARK  110  A    between atoms: _262  and  _263
REMARK  111  A    between atoms: _265  and  _267
REMARK  112  A    between atoms: _267  and  _268
REMARK  113  A    between atoms: _267  and  _270
REMARK  114  A    between atoms: _270  and  _271
REMARK  115  A    between atoms: _274  and  _276
REMARK  116  A    between atoms: _276  and  _277
REMARK  117  A    between atoms: _279  and  _281
REMARK  118  A    between atoms: _281  and  _282
REMARK  119  A    between atoms: _281  and  _284
REMARK  120  A    between atoms: _284  and  _285
REMARK  121  A    between atoms: _289  and  ZN_368
REMARK  122  A    between atoms: _290  and  _292
REMARK  123  A    between atoms: _292  and  _293
REMARK  124  A    between atoms: _296  and  _298
REMARK  125  A    between atoms: _298  and  _299
REMARK  126  A    between atoms: _298  and  _301
REMARK  127  A    between atoms: _304  and  _306
REMARK  128  A    between atoms: _306  and  _307
REMARK  129  A    between atoms: _306  and  _309
REMARK  130  A    between atoms: _309  and  _310
REMARK  131  A    between atoms: _310  and  _311
REMARK  132  A    between atoms: _313  and  _315
REMARK  133  A    between atoms: _315  and  _316
REMARK  134  A    between atoms: _315  and  _318
REMARK  135  A    between atoms: _318  and  _319
REMARK  136  A    between atoms: _326  and  _327
REMARK  137  A    between atoms: _332  and  _334
REMARK  138  A    between atoms: _334  and  _335
REMARK  139  A    between atoms: _334  and  _337
REMARK  140  A    between atoms: _337  and  _338
REMARK  141  A    between atoms: _341  and  _343
REMARK  142  A    between atoms: _343  and  _344
REMARK  143  A    between atoms: _343  and  _346
REMARK  144  A    between atoms: _346  and  _347
REMARK  145  A    between atoms: _352  and  _353
REMARK  146  A    between atoms: _355  and  _357
REMARK  147  A    between atoms: _357  and  _358
REMARK  148  A    between atoms: _357  and  _360
REMARK  149  A    between atoms: _360  and  _361
REMARK  150  A    between atoms: _361  and  _362
REMARK  151  A    between atoms: _362  and  _363
REMARK  152  A    between atoms: _363  and  _364
REMARK                            x       y       z     vdW  Elec       q    Type
REMARK                         _______ _______ _______ _____ _____    ______ ____
ROOT
ATOM      1  O   HOH     1     -13.140   1.031 -19.244  0.00  0.00    +0.000 OA
ENDROOT
TORSDOF 0
REMARK  Name = ../refined-set-2016/3f18/3f18_pocket.pdb
REMARK  152 active torsions:
REMARK  status: ('A' for Active; 'I' for Inactive)
REMARK    1  A    between atoms: _1  and  _3
REMARK    2  A    between atoms: _3  and  _4
REMARK    3  A    between atoms: _3  and  _6
REMARK    4  A    between atoms: _6  and  _7
REMARK    5  A    between atoms: _13  and  _15
REMARK    6  A    between atoms: _15  and  _16
REMARK    7  A    between atoms: _15  and  _18
REMARK    8  A    between atoms: _18  and  _19
REMARK    9  A    between atoms: _22  and  _24
REMARK   10  A    between atoms: _24  and  _25
REMARK   11  A    between atoms: _27  and  _29
REMARK   12  A    between atoms: _29  and  _30
REMARK   13  A    between atoms: _32  and  _34
REMARK   14  A    between atoms: _34  and  _35
REMARK   15  A    between atoms: _34  and  _37
REMARK   16  A    between atoms: _35  and  _36
REMARK   17  A    between atoms: _35  and  _41
REMARK   18  A    between atoms: _36  and  CA_369
REMARK   19  A    between atoms: _37  and  _38
REMARK   20  A    between atoms: _41  and  _43
REMARK   21  A    between atoms: _43  and  _44
REMARK   22  A    between atoms: _43  and  _46
REMARK   23  A    between atoms: _46  and  _47
REMARK   24  A    between atoms: _50  and  _52
REMARK   25  A    between atoms: _52  and  _53
REMARK   26  A    between atoms: _56  and  _58
REMARK   27  A    between atoms: _58  and  _59
REMARK   28  A    between atoms: _58  and  _61
REMARK   29  A    between atoms: _61  and  _62
REMARK   30  A    between atoms: _67  and  _69
REMARK   31  A    between atoms: _69  and  _70
REMARK   32  A    between atoms: _73  and  _75
REMARK   33  A    between atoms: _75  and  _76
REMARK   34  A    between atoms: _75  and  _78
REMARK   35  A    between atoms: _78  and  _79
REMARK   36  A    between atoms: _85  and  _87
REMARK   37  A    between atoms: _87  and  _88
REMARK   38  A    between atoms: _87  and  _90
REMARK   39  A    between atoms: _90  and  _91
REMARK   40  A    between atoms: _96  and  _98
REMARK   41  A    between atoms: _98  and  _99
REMARK   42  A    between atoms: _98  and  _101
REMARK   43  A    between atoms: _101  and  _102
REMARK   44  A    between atoms: _108  and  _110
REMARK   45  A    between atoms: _110  and  _111
REMARK   46  A    between atoms: _110  and  _113
REMARK   47  A    between atoms: _113  and  _114
REMARK   48  A    between atoms: _117  and  _119
REMARK   49  A    between atoms: _119  and  _120
REMARK   50  A    between atoms: _119  and  _122
REMARK   51  A    between atoms: _122  and  _123
REMARK   52  A    between atoms: _123  and  _124
REMARK   53  A    between atoms: _124  and  _126
REMARK   54  A    between atoms: _126  and  CA_369
REMARK   55  A    between atoms: _127  and  _129
REMARK   56  A    between atoms: _129  and  _130
REMARK   57  A    between atoms: _129  and  _132
REMARK   58  A    between atoms: _132  and  _133
REMARK   59  A    between atoms: _143  and  _145
REMARK   60  A    between atoms: _145  and  _146
REMARK   61  A    between atoms: _145  and  _148
REMARK   62  A    between atoms: _148  and  _149
REMARK   63  A    between atoms: _152  and  _154
REMARK   64  A    between atoms: _154  and  _155
REMARK   65  A    between atoms: _154  and  _157
REMARK   66  A    between atoms: _157  and  _158
REMARK   67  A    between atoms: _163  and  _165
REMARK   68  A    between atoms: _165  and  _166
REMARK   69  A    between atoms: _165  and  _168
REMARK   70  A    between atoms: _168  and  _169
REMARK   71  A    between atoms: _172  and  _174
REMARK   72  A    between atoms: _174  and  _175
REMARK   73  A    between atoms: _174  and  _177
REMARK   74  A    between atoms: _177  and  _178
REMARK   75  A    between atoms: _184  and  _186
REMARK   76  A    between atoms: _186  and  _187
REMARK   77  A    between atoms: _186  and  _189
REMARK   78  A    between atoms: _189  and  _190
REMARK   79  A    between atoms: _193  and  _195
REMARK   80  A    between atoms: _195  and  _196
REMARK   81  A    between atoms: _195  and  _198
REMARK   82  A    between atoms: _198  and  _199
REMARK   83  A    between atoms: _202  and  _204
REMARK   84  A    between atoms: _204  and  _205
REMARK   85  A    between atoms: _208  and  _210
REMARK   86  A    between atoms: _210  and  _211
REMARK   87  A    between atoms: _210  and  _213
REMARK   88  A    between atoms: _216  and  _218
REMARK   89  A    between atoms: _218  and  _219
REMARK   90  A    between atoms: _218  and  _221
REMARK   91  A    between atoms: _221  and  _222
REMARK   92  A    between atoms: _226  and  ZN_368
REMARK   93  A    between atoms: _227  and  _229
REMARK   94  A    between atoms: _229  and  _230
REMARK   95  A    between atoms: _229  and  _232
REMARK   96  A    between atoms: _232  and  _233
REMARK   97  A    between atoms: _233  and  _234
REMARK   98  A    between atoms: _237  and  _239
REMARK   99  A    between atoms: _239  and  _240
REMARK  100  A    between atoms: _239  and  _242
REMARK  101  A    between atoms: _242  and  _243
REMARK  102  A    between atoms: _246  and  _248
REMARK  103  A    between atoms: _248  and  _249
REMARK  104  A    between atoms: _248  and  _251
REMARK  105  A    between atoms: _251  and  _252
REMARK  106  A    between atoms: _256  and  ZN_368
REMARK  107  A    between atoms: _257  and  _259
REMARK  108  A    between atoms: _259  and  _260
REMARK  109  A    between atoms: _259  and  _262
REMARK  110  A    between atoms: _262  and  _263
REMARK  111  A    between atoms: _265  and  _267
REMARK  112  A    between atoms: _267  and  _268
REMARK  113  A    between atoms: _267  and  _270
REMARK  114  A    between atoms: _270  and  _271
REMARK  115  A    between atoms: _274  and  _276
REMARK  116  A    between atoms: _276  and  _277
REMARK  117  A    between atoms: _279  and  _281
REMARK  118  A    between atoms: _281  and  _282
REMARK  119  A    between atoms: _281  and  _284
REMARK  120  A    between atoms: _284  and  _285
REMARK  121  A    between atoms: _289  and  ZN_368
REMARK  122  A    between atoms: _290  and  _292
REMARK  123  A    between atoms: _292  and  _293
REMARK  124  A    between atoms: _296  and  _298
REMARK  125  A    between atoms: _298  and  _299
REMARK  126  A    between atoms: _298  and  _301
REMARK  127  A    between atoms: _304  and  _306
REMARK  128  A    between atoms: _306  and  _307
REMARK  129  A    between atoms: _306  and  _309
REMARK  130  A    between atoms: _309  and  _310
REMARK  131  A    between atoms: _310  and  _311
REMARK  132  A    between atoms: _313  and  _315
REMARK  133  A    between atoms: _315  and  _316
REMARK  134  A    between atoms: _315  and  _318
REMARK  135  A    between atoms: _318  and  _319
REMARK  136  A    between atoms: _326  and  _327
REMARK  137  A    between atoms: _332  and  _334
REMARK  138  A    between atoms: _334  and  _335
REMARK  139  A    between atoms: _334  and  _337
REMARK  140  A    between atoms: _337  and  _338
REMARK  141  A    between atoms: _341  and  _343
REMARK  142  A    between atoms: _343  and  _344
REMARK  143  A    between atoms: _343  and  _346
REMARK  144  A    between atoms: _346  and  _347
REMARK  145  A    between atoms: _352  and  _353
REMARK  146  A    between atoms: _355  and  _357
REMARK  147  A    between atoms: _357  and  _358
REMARK  148  A    between atoms: _357  and  _360
REMARK  149  A    between atoms: _360  and  _361
REMARK  150  A    between atoms: _361  and  _362
REMARK  151  A    between atoms: _362  and  _363
REMARK  152  A    between atoms: _363  and  _364
REMARK                            x       y       z     vdW  Elec       q    Type
REMARK                         _______ _______ _______ _____ _____    ______ ____
ROOT
ATOM      1  O   HOH     1      -8.124  -1.159 -25.948  0.00  0.00    +0.000 OA
ENDROOT
TORSDOF 0
REMARK  Name = ../refined-set-2016/3f18/3f18_pocket.pdb
REMARK  152 active torsions:
REMARK  status: ('A' for Active; 'I' for Inactive)
REMARK    1  A    between atoms: _1  and  _3
REMARK    2  A    between atoms: _3  and  _4
REMARK    3  A    between atoms: _3  and  _6
REMARK    4  A    between atoms: _6  and  _7
REMARK    5  A    between atoms: _13  and  _15
REMARK    6  A    between atoms: _15  and  _16
REMARK    7  A    between atoms: _15  and  _18
REMARK    8  A    between atoms: _18  and  _19
REMARK    9  A    between atoms: _22  and  _24
REMARK   10  A    between atoms: _24  and  _25
REMARK   11  A    between atoms: _27  and  _29
REMARK   12  A    between atoms: _29  and  _30
REMARK   13  A    between atoms: _32  and  _34
REMARK   14  A    between atoms: _34  and  _35
REMARK   15  A    between atoms: _34  and  _37
REMARK   16  A    between atoms: _35  and  _36
REMARK   17  A    between atoms: _35  and  _41
REMARK   18  A    between atoms: _36  and  CA_369
REMARK   19  A    between atoms: _37  and  _38
REMARK   20  A    between atoms: _41  and  _43
REMARK   21  A    between atoms: _43  and  _44
REMARK   22  A    between atoms: _43  and  _46
REMARK   23  A    between atoms: _46  and  _47
REMARK   24  A    between atoms: _50  and  _52
REMARK   25  A    between atoms: _52  and  _53
REMARK   26  A    between atoms: _56  and  _58
REMARK   27  A    between atoms: _58  and  _59
REMARK   28  A    between atoms: _58  and  _61
REMARK   29  A    between atoms: _61  and  _62
REMARK   30  A    between atoms: _67  and  _69
REMARK   31  A    between atoms: _69  and  _70
REMARK   32  A    between atoms: _73  and  _75
REMARK   33  A    between atoms: _75  and  _76
REMARK   34  A    between atoms: _75  and  _78
REMARK   35  A    between atoms: _78  and  _79
REMARK   36  A    between atoms: _85  and  _87
REMARK   37  A    between atoms: _87  and  _88
REMARK   38  A    between atoms: _87  and  _90
REMARK   39  A    between atoms: _90  and  _91
REMARK   40  A    between atoms: _96  and  _98
REMARK   41  A    between atoms: _98  and  _99
REMARK   42  A    between atoms: _98  and  _101
REMARK   43  A    between atoms: _101  and  _102
REMARK   44  A    between atoms: _108  and  _110
REMARK   45  A    between atoms: _110  and  _111
REMARK   46  A    between atoms: _110  and  _113
REMARK   47  A    between atoms: _113  and  _114
REMARK   48  A    between atoms: _117  and  _119
REMARK   49  A    between atoms: _119  and  _120
REMARK   50  A    between atoms: _119  and  _122
REMARK   51  A    between atoms: _122  and  _123
REMARK   52  A    between atoms: _123  and  _124
REMARK   53  A    between atoms: _124  and  _126
REMARK   54  A    between atoms: _126  and  CA_369
REMARK   55  A    between atoms: _127  and  _129
REMARK   56  A    between atoms: _129  and  _130
REMARK   57  A    between atoms: _129  and  _132
REMARK   58  A    between atoms: _132  and  _133
REMARK   59  A    between atoms: _143  and  _145
REMARK   60  A    between atoms: _145  and  _146
REMARK   61  A    between atoms: _145  and  _148
REMARK   62  A    between atoms: _148  and  _149
REMARK   63  A    between atoms: _152  and  _154
REMARK   64  A    between atoms: _154  and  _155
REMARK   65  A    between atoms: _154  and  _157
REMARK   66  A    between atoms: _157  and  _158
REMARK   67  A    between atoms: _163  and  _165
REMARK   68  A    between atoms: _165  and  _166
REMARK   69  A    between atoms: _165  and  _168
REMARK   70  A    between atoms: _168  and  _169
REMARK   71  A    between atoms: _172  and  _174
REMARK   72  A    between atoms: _174  and  _175
REMARK   73  A    between atoms: _174  and  _177
REMARK   74  A    between atoms: _177  and  _178
REMARK   75  A    between atoms: _184  and  _186
REMARK   76  A    between atoms: _186  and  _187
REMARK   77  A    between atoms: _186  and  _189
REMARK   78  A    between atoms: _189  and  _190
REMARK   79  A    between atoms: _193  and  _195
REMARK   80  A    between atoms: _195  and  _196
REMARK   81  A    between atoms: _195  and  _198
REMARK   82  A    between atoms: _198  and  _199
REMARK   83  A    between atoms: _202  and  _204
REMARK   84  A    between atoms: _204  and  _205
REMARK   85  A    between atoms: _208  and  _210
REMARK   86  A    between atoms: _210  and  _211
REMARK   87  A    between atoms: _210  and  _213
REMARK   88  A    between atoms: _216  and  _218
REMARK   89  A    between atoms: _218  and  _219
REMARK   90  A    between atoms: _218  and  _221
REMARK   91  A    between atoms: _221  and  _222
REMARK   92  A    between atoms: _226  and  ZN_368
REMARK   93  A    between atoms: _227  and  _229
REMARK   94  A    between atoms: _229  and  _230
REMARK   95  A    between atoms: _229  and  _232
REMARK   96  A    between atoms: _232  and  _233
REMARK   97  A    between atoms: _233  and  _234
REMARK   98  A    between atoms: _237  and  _239
REMARK   99  A    between atoms: _239  and  _240
REMARK  100  A    between atoms: _239  and  _242
REMARK  101  A    between atoms: _242  and  _243
REMARK  102  A    between atoms: _246  and  _248
REMARK  103  A    between atoms: _248  and  _249
REMARK  104  A    between atoms: _248  and  _251
REMARK  105  A    between atoms: _251  and  _252
REMARK  106  A    between atoms: _256  and  ZN_368
REMARK  107  A    between atoms: _257  and  _259
REMARK  108  A    between atoms: _259  and  _260
REMARK  109  A    between atoms: _259  and  _262
REMARK  110  A    between atoms: _262  and  _263
REMARK  111  A    between atoms: _265  and  _267
REMARK  112  A    between atoms: _267  and  _268
REMARK  113  A    between atoms: _267  and  _270
REMARK  114  A    between atoms: _270  and  _271
REMARK  115  A    between atoms: _274  and  _276
REMARK  116  A    between atoms: _276  and  _277
REMARK  117  A    between atoms: _279  and  _281
REMARK  118  A    between atoms: _281  and  _282
REMARK  119  A    between atoms: _281  and  _284
REMARK  120  A    between atoms: _284  and  _285
REMARK  121  A    between atoms: _289  and  ZN_368
REMARK  122  A    between atoms: _290  and  _292
REMARK  123  A    between atoms: _292  and  _293
REMARK  124  A    between atoms: _296  and  _298
REMARK  125  A    between atoms: _298  and  _299
REMARK  126  A    between atoms: _298  and  _301
REMARK  127  A    between atoms: _304  and  _306
REMARK  128  A    between atoms: _306  and  _307
REMARK  129  A    between atoms: _306  and  _309
REMARK  130  A    between atoms: _309  and  _310
REMARK  131  A    between atoms: _310  and  _311
REMARK  132  A    between atoms: _313  and  _315
REMARK  133  A    between atoms: _315  and  _316
REMARK  134  A    between atoms: _315  and  _318
REMARK  135  A    between atoms: _318  and  _319
REMARK  136  A    between atoms: _326  and  _327
REMARK  137  A    between atoms: _332  and  _334
REMARK  138  A    between atoms: _334  and  _335
REMARK  139  A    between atoms: _334  and  _337
REMARK  140  A    between atoms: _337  and  _338
REMARK  141  A    between atoms: _341  and  _343
REMARK  142  A    between atoms: _343  and  _344
REMARK  143  A    between atoms: _343  and  _346
REMARK  144  A    between atoms: _346  and  _347
REMARK  145  A    between atoms: _352  and  _353
REMARK  146  A    between atoms: _355  and  _357
REMARK  147  A    between atoms: _357  and  _358
REMARK  148  A    between atoms: _357  and  _360
REMARK  149  A    between atoms: _360  and  _361
REMARK  150  A    between atoms: _361  and  _362
REMARK  151  A    between atoms: _362  and  _363
REMARK  152  A    between atoms: _363  and  _364
REMARK                            x       y       z     vdW  Elec       q    Type
REMARK                         _______ _______ _______ _____ _____    ______ ____
ROOT
ATOM      1  O   HOH     1     -17.919  -1.070 -21.850  0.00  0.00    +0.000 OA
ENDROOT
TORSDOF 0
REMARK  Name = ../refined-set-2016/3f18/3f18_pocket.pdb
REMARK  152 active torsions:
REMARK  status: ('A' for Active; 'I' for Inactive)
REMARK    1  A    between atoms: _1  and  _3
REMARK    2  A    between atoms: _3  and  _4
REMARK    3  A    between atoms: _3  and  _6
REMARK    4  A    between atoms: _6  and  _7
REMARK    5  A    between atoms: _13  and  _15
REMARK    6  A    between atoms: _15  and  _16
REMARK    7  A    between atoms: _15  and  _18
REMARK    8  A    between atoms: _18  and  _19
REMARK    9  A    between atoms: _22  and  _24
REMARK   10  A    between atoms: _24  and  _25
REMARK   11  A    between atoms: _27  and  _29
REMARK   12  A    between atoms: _29  and  _30
REMARK   13  A    between atoms: _32  and  _34
REMARK   14  A    between atoms: _34  and  _35
REMARK   15  A    between atoms: _34  and  _37
REMARK   16  A    between atoms: _35  and  _36
REMARK   17  A    between atoms: _35  and  _41
REMARK   18  A    between atoms: _36  and  CA_369
REMARK   19  A    between atoms: _37  and  _38
REMARK   20  A    between atoms: _41  and  _43
REMARK   21  A    between atoms: _43  and  _44
REMARK   22  A    between atoms: _43  and  _46
REMARK   23  A    between atoms: _46  and  _47
REMARK   24  A    between atoms: _50  and  _52
REMARK   25  A    between atoms: _52  and  _53
REMARK   26  A    between atoms: _56  and  _58
REMARK   27  A    between atoms: _58  and  _59
REMARK   28  A    between atoms: _58  and  _61
REMARK   29  A    between atoms: _61  and  _62
REMARK   30  A    between atoms: _67  and  _69
REMARK   31  A    between atoms: _69  and  _70
REMARK   32  A    between atoms: _73  and  _75
REMARK   33  A    between atoms: _75  and  _76
REMARK   34  A    between atoms: _75  and  _78
REMARK   35  A    between atoms: _78  and  _79
REMARK   36  A    between atoms: _85  and  _87
REMARK   37  A    between atoms: _87  and  _88
REMARK   38  A    between atoms: _87  and  _90
REMARK   39  A    between atoms: _90  and  _91
REMARK   40  A    between atoms: _96  and  _98
REMARK   41  A    between atoms: _98  and  _99
REMARK   42  A    between atoms: _98  and  _101
REMARK   43  A    between atoms: _101  and  _102
REMARK   44  A    between atoms: _108  and  _110
REMARK   45  A    between atoms: _110  and  _111
REMARK   46  A    between atoms: _110  and  _113
REMARK   47  A    between atoms: _113  and  _114
REMARK   48  A    between atoms: _117  and  _119
REMARK   49  A    between atoms: _119  and  _120
REMARK   50  A    between atoms: _119  and  _122
REMARK   51  A    between atoms: _122  and  _123
REMARK   52  A    between atoms: _123  and  _124
REMARK   53  A    between atoms: _124  and  _126
REMARK   54  A    between atoms: _126  and  CA_369
REMARK   55  A    between atoms: _127  and  _129
REMARK   56  A    between atoms: _129  and  _130
REMARK   57  A    between atoms: _129  and  _132
REMARK   58  A    between atoms: _132  and  _133
REMARK   59  A    between atoms: _143  and  _145
REMARK   60  A    between atoms: _145  and  _146
REMARK   61  A    between atoms: _145  and  _148
REMARK   62  A    between atoms: _148  and  _149
REMARK   63  A    between atoms: _152  and  _154
REMARK   64  A    between atoms: _154  and  _155
REMARK   65  A    between atoms: _154  and  _157
REMARK   66  A    between atoms: _157  and  _158
REMARK   67  A    between atoms: _163  and  _165
REMARK   68  A    between atoms: _165  and  _166
REMARK   69  A    between atoms: _165  and  _168
REMARK   70  A    between atoms: _168  and  _169
REMARK   71  A    between atoms: _172  and  _174
REMARK   72  A    between atoms: _174  and  _175
REMARK   73  A    between atoms: _174  and  _177
REMARK   74  A    between atoms: _177  and  _178
REMARK   75  A    between atoms: _184  and  _186
REMARK   76  A    between atoms: _186  and  _187
REMARK   77  A    between atoms: _186  and  _189
REMARK   78  A    between atoms: _189  and  _190
REMARK   79  A    between atoms: _193  and  _195
REMARK   80  A    between atoms: _195  and  _196
REMARK   81  A    between atoms: _195  and  _198
REMARK   82  A    between atoms: _198  and  _199
REMARK   83  A    between atoms: _202  and  _204
REMARK   84  A    between atoms: _204  and  _205
REMARK   85  A    between atoms: _208  and  _210
REMARK   86  A    between atoms: _210  and  _211
REMARK   87  A    between atoms: _210  and  _213
REMARK   88  A    between atoms: _216  and  _218
REMARK   89  A    between atoms: _218  and  _219
REMARK   90  A    between atoms: _218  and  _221
REMARK   91  A    between atoms: _221  and  _222
REMARK   92  A    between atoms: _226  and  ZN_368
REMARK   93  A    between atoms: _227  and  _229
REMARK   94  A    between atoms: _229  and  _230
REMARK   95  A    between atoms: _229  and  _232
REMARK   96  A    between atoms: _232  and  _233
REMARK   97  A    between atoms: _233  and  _234
REMARK   98  A    between atoms: _237  and  _239
REMARK   99  A    between atoms: _239  and  _240
REMARK  100  A    between atoms: _239  and  _242
REMARK  101  A    between atoms: _242  and  _243
REMARK  102  A    between atoms: _246  and  _248
REMARK  103  A    between atoms: _248  and  _249
REMARK  104  A    between atoms: _248  and  _251
REMARK  105  A    between atoms: _251  and  _252
REMARK  106  A    between atoms: _256  and  ZN_368
REMARK  107  A    between atoms: _257  and  _259
REMARK  108  A    between atoms: _259  and  _260
REMARK  109  A    between atoms: _259  and  _262
REMARK  110  A    between atoms: _262  and  _263
REMARK  111  A    between atoms: _265  and  _267
REMARK  112  A    between atoms: _267  and  _268
REMARK  113  A    between atoms: _267  and  _270
REMARK  114  A    between atoms: _270  and  _271
REMARK  115  A    between atoms: _274  and  _276
REMARK  116  A    between atoms: _276  and  _277
REMARK  117  A    between atoms: _279  and  _281
REMARK  118  A    between atoms: _281  and  _282
REMARK  119  A    between atoms: _281  and  _284
REMARK  120  A    between atoms: _284  and  _285
REMARK  121  A    between atoms: _289  and  ZN_368
REMARK  122  A    between atoms: _290  and  _292
REMARK  123  A    between atoms: _292  and  _293
REMARK  124  A    between atoms: _296  and  _298
REMARK  125  A    between atoms: _298  and  _299
REMARK  126  A    between atoms: _298  and  _301
REMARK  127  A    between atoms: _304  and  _306
REMARK  128  A    between atoms: _306  and  _307
REMARK  129  A    between atoms: _306  and  _309
REMARK  130  A    between atoms: _309  and  _310
REMARK  131  A    between atoms: _310  and  _311
REMARK  132  A    between atoms: _313  and  _315
REMARK  133  A    between atoms: _315  and  _316
REMARK  134  A    between atoms: _315  and  _318
REMARK  135  A    between atoms: _318  and  _319
REMARK  136  A    between atoms: _326  and  _327
REMARK  137  A    between atoms: _332  and  _334
REMARK  138  A    between atoms: _334  and  _335
REMARK  139  A    between atoms: _334  and  _337
REMARK  140  A    between atoms: _337  and  _338
REMARK  141  A    between atoms: _341  and  _343
REMARK  142  A    between atoms: _343  and  _344
REMARK  143  A    between atoms: _343  and  _346
REMARK  144  A    between atoms: _346  and  _347
REMARK  145  A    between atoms: _352  and  _353
REMARK  146  A    between atoms: _355  and  _357
REMARK  147  A    between atoms: _357  and  _358
REMARK  148  A    between atoms: _357  and  _360
REMARK  149  A    between atoms: _360  and  _361
REMARK  150  A    between atoms: _361  and  _362
REMARK  151  A    between atoms: _362  and  _363
REMARK  152  A    between atoms: _363  and  _364
REMARK                            x       y       z     vdW  Elec       q    Type
REMARK                         _______ _______ _______ _____ _____    ______ ____
ROOT
ATOM      1  O   HOH     1     -14.784 -13.412 -15.550  0.00  0.00    +0.000 OA
ENDROOT
TORSDOF 0
REMARK  Name = ../refined-set-2016/3f18/3f18_pocket.pdb
REMARK  152 active torsions:
REMARK  status: ('A' for Active; 'I' for Inactive)
REMARK    1  A    between atoms: _1  and  _3
REMARK    2  A    between atoms: _3  and  _4
REMARK    3  A    between atoms: _3  and  _6
REMARK    4  A    between atoms: _6  and  _7
REMARK    5  A    between atoms: _13  and  _15
REMARK    6  A    between atoms: _15  and  _16
REMARK    7  A    between atoms: _15  and  _18
REMARK    8  A    between atoms: _18  and  _19
REMARK    9  A    between atoms: _22  and  _24
REMARK   10  A    between atoms: _24  and  _25
REMARK   11  A    between atoms: _27  and  _29
REMARK   12  A    between atoms: _29  and  _30
REMARK   13  A    between atoms: _32  and  _34
REMARK   14  A    between atoms: _34  and  _35
REMARK   15  A    between atoms: _34  and  _37
REMARK   16  A    between atoms: _35  and  _36
REMARK   17  A    between atoms: _35  and  _41
REMARK   18  A    between atoms: _36  and  CA_369
REMARK   19  A    between atoms: _37  and  _38
REMARK   20  A    between atoms: _41  and  _43
REMARK   21  A    between atoms: _43  and  _44
REMARK   22  A    between atoms: _43  and  _46
REMARK   23  A    between atoms: _46  and  _47
REMARK   24  A    between atoms: _50  and  _52
REMARK   25  A    between atoms: _52  and  _53
REMARK   26  A    between atoms: _56  and  _58
REMARK   27  A    between atoms: _58  and  _59
REMARK   28  A    between atoms: _58  and  _61
REMARK   29  A    between atoms: _61  and  _62
REMARK   30  A    between atoms: _67  and  _69
REMARK   31  A    between atoms: _69  and  _70
REMARK   32  A    between atoms: _73  and  _75
REMARK   33  A    between atoms: _75  and  _76
REMARK   34  A    between atoms: _75  and  _78
REMARK   35  A    between atoms: _78  and  _79
REMARK   36  A    between atoms: _85  and  _87
REMARK   37  A    between atoms: _87  and  _88
REMARK   38  A    between atoms: _87  and  _90
REMARK   39  A    between atoms: _90  and  _91
REMARK   40  A    between atoms: _96  and  _98
REMARK   41  A    between atoms: _98  and  _99
REMARK   42  A    between atoms: _98  and  _101
REMARK   43  A    between atoms: _101  and  _102
REMARK   44  A    between atoms: _108  and  _110
REMARK   45  A    between atoms: _110  and  _111
REMARK   46  A    between atoms: _110  and  _113
REMARK   47  A    between atoms: _113  and  _114
REMARK   48  A    between atoms: _117  and  _119
REMARK   49  A    between atoms: _119  and  _120
REMARK   50  A    between atoms: _119  and  _122
REMARK   51  A    between atoms: _122  and  _123
REMARK   52  A    between atoms: _123  and  _124
REMARK   53  A    between atoms: _124  and  _126
REMARK   54  A    between atoms: _126  and  CA_369
REMARK   55  A    between atoms: _127  and  _129
REMARK   56  A    between atoms: _129  and  _130
REMARK   57  A    between atoms: _129  and  _132
REMARK   58  A    between atoms: _132  and  _133
REMARK   59  A    between atoms: _143  and  _145
REMARK   60  A    between atoms: _145  and  _146
REMARK   61  A    between atoms: _145  and  _148
REMARK   62  A    between atoms: _148  and  _149
REMARK   63  A    between atoms: _152  and  _154
REMARK   64  A    between atoms: _154  and  _155
REMARK   65  A    between atoms: _154  and  _157
REMARK   66  A    between atoms: _157  and  _158
REMARK   67  A    between atoms: _163  and  _165
REMARK   68  A    between atoms: _165  and  _166
REMARK   69  A    between atoms: _165  and  _168
REMARK   70  A    between atoms: _168  and  _169
REMARK   71  A    between atoms: _172  and  _174
REMARK   72  A    between atoms: _174  and  _175
REMARK   73  A    between atoms: _174  and  _177
REMARK   74  A    between atoms: _177  and  _178
REMARK   75  A    between atoms: _184  and  _186
REMARK   76  A    between atoms: _186  and  _187
REMARK   77  A    between atoms: _186  and  _189
REMARK   78  A    between atoms: _189  and  _190
REMARK   79  A    between atoms: _193  and  _195
REMARK   80  A    between atoms: _195  and  _196
REMARK   81  A    between atoms: _195  and  _198
REMARK   82  A    between atoms: _198  and  _199
REMARK   83  A    between atoms: _202  and  _204
REMARK   84  A    between atoms: _204  and  _205
REMARK   85  A    between atoms: _208  and  _210
REMARK   86  A    between atoms: _210  and  _211
REMARK   87  A    between atoms: _210  and  _213
REMARK   88  A    between atoms: _216  and  _218
REMARK   89  A    between atoms: _218  and  _219
REMARK   90  A    between atoms: _218  and  _221
REMARK   91  A    between atoms: _221  and  _222
REMARK   92  A    between atoms: _226  and  ZN_368
REMARK   93  A    between atoms: _227  and  _229
REMARK   94  A    between atoms: _229  and  _230
REMARK   95  A    between atoms: _229  and  _232
REMARK   96  A    between atoms: _232  and  _233
REMARK   97  A    between atoms: _233  and  _234
REMARK   98  A    between atoms: _237  and  _239
REMARK   99  A    between atoms: _239  and  _240
REMARK  100  A    between atoms: _239  and  _242
REMARK  101  A    between atoms: _242  and  _243
REMARK  102  A    between atoms: _246  and  _248
REMARK  103  A    between atoms: _248  and  _249
REMARK  104  A    between atoms: _248  and  _251
REMARK  105  A    between atoms: _251  and  _252
REMARK  106  A    between atoms: _256  and  ZN_368
REMARK  107  A    between atoms: _257  and  _259
REMARK  108  A    between atoms: _259  and  _260
REMARK  109  A    between atoms: _259  and  _262
REMARK  110  A    between atoms: _262  and  _263
REMARK  111  A    between atoms: _265  and  _267
REMARK  112  A    between atoms: _267  and  _268
REMARK  113  A    between atoms: _267  and  _270
REMARK  114  A    between atoms: _270  and  _271
REMARK  115  A    between atoms: _274  and  _276
REMARK  116  A    between atoms: _276  and  _277
REMARK  117  A    between atoms: _279  and  _281
REMARK  118  A    between atoms: _281  and  _282
REMARK  119  A    between atoms: _281  and  _284
REMARK  120  A    between atoms: _284  and  _285
REMARK  121  A    between atoms: _289  and  ZN_368
REMARK  122  A    between atoms: _290  and  _292
REMARK  123  A    between atoms: _292  and  _293
REMARK  124  A    between atoms: _296  and  _298
REMARK  125  A    between atoms: _298  and  _299
REMARK  126  A    between atoms: _298  and  _301
REMARK  127  A    between atoms: _304  and  _306
REMARK  128  A    between atoms: _306  and  _307
REMARK  129  A    between atoms: _306  and  _309
REMARK  130  A    between atoms: _309  and  _310
REMARK  131  A    between atoms: _310  and  _311
REMARK  132  A    between atoms: _313  and  _315
REMARK  133  A    between atoms: _315  and  _316
REMARK  134  A    between atoms: _315  and  _318
REMARK  135  A    between atoms: _318  and  _319
REMARK  136  A    between atoms: _326  and  _327
REMARK  137  A    between atoms: _332  and  _334
REMARK  138  A    between atoms: _334  and  _335
REMARK  139  A    between atoms: _334  and  _337
REMARK  140  A    between atoms: _337  and  _338
REMARK  141  A    between atoms: _341  and  _343
REMARK  142  A    between atoms: _343  and  _344
REMARK  143  A    between atoms: _343  and  _346
REMARK  144  A    between atoms: _346  and  _347
REMARK  145  A    between atoms: _352  and  _353
REMARK  146  A    between atoms: _355  and  _357
REMARK  147  A    between atoms: _357  and  _358
REMARK  148  A    between atoms: _357  and  _360
REMARK  149  A    between atoms: _360  and  _361
REMARK  150  A    between atoms: _361  and  _362
REMARK  151  A    between atoms: _362  and  _363
REMARK  152  A    between atoms: _363  and  _364
REMARK                            x       y       z     vdW  Elec       q    Type
REMARK                         _______ _______ _______ _____ _____    ______ ____
ROOT
ATOM      1  O   HOH     1     -14.051 -11.155 -20.034  0.00  0.00    +0.000 OA
ENDROOT
TORSDOF 0
REMARK  Name = ../refined-set-2016/3f18/3f18_pocket.pdb
REMARK  152 active torsions:
REMARK  status: ('A' for Active; 'I' for Inactive)
REMARK    1  A    between atoms: _1  and  _3
REMARK    2  A    between atoms: _3  and  _4
REMARK    3  A    between atoms: _3  and  _6
REMARK    4  A    between atoms: _6  and  _7
REMARK    5  A    between atoms: _13  and  _15
REMARK    6  A    between atoms: _15  and  _16
REMARK    7  A    between atoms: _15  and  _18
REMARK    8  A    between atoms: _18  and  _19
REMARK    9  A    between atoms: _22  and  _24
REMARK   10  A    between atoms: _24  and  _25
REMARK   11  A    between atoms: _27  and  _29
REMARK   12  A    between atoms: _29  and  _30
REMARK   13  A    between atoms: _32  and  _34
REMARK   14  A    between atoms: _34  and  _35
REMARK   15  A    between atoms: _34  and  _37
REMARK   16  A    between atoms: _35  and  _36
REMARK   17  A    between atoms: _35  and  _41
REMARK   18  A    between atoms: _36  and  CA_369
REMARK   19  A    between atoms: _37  and  _38
REMARK   20  A    between atoms: _41  and  _43
REMARK   21  A    between atoms: _43  and  _44
REMARK   22  A    between atoms: _43  and  _46
REMARK   23  A    between atoms: _46  and  _47
REMARK   24  A    between atoms: _50  and  _52
REMARK   25  A    between atoms: _52  and  _53
REMARK   26  A    between atoms: _56  and  _58
REMARK   27  A    between atoms: _58  and  _59
REMARK   28  A    between atoms: _58  and  _61
REMARK   29  A    between atoms: _61  and  _62
REMARK   30  A    between atoms: _67  and  _69
REMARK   31  A    between atoms: _69  and  _70
REMARK   32  A    between atoms: _73  and  _75
REMARK   33  A    between atoms: _75  and  _76
REMARK   34  A    between atoms: _75  and  _78
REMARK   35  A    between atoms: _78  and  _79
REMARK   36  A    between atoms: _85  and  _87
REMARK   37  A    between atoms: _87  and  _88
REMARK   38  A    between atoms: _87  and  _90
REMARK   39  A    between atoms: _90  and  _91
REMARK   40  A    between atoms: _96  and  _98
REMARK   41  A    between atoms: _98  and  _99
REMARK   42  A    between atoms: _98  and  _101
REMARK   43  A    between atoms: _101  and  _102
REMARK   44  A    between atoms: _108  and  _110
REMARK   45  A    between atoms: _110  and  _111
REMARK   46  A    between atoms: _110  and  _113
REMARK   47  A    between atoms: _113  and  _114
REMARK   48  A    between atoms: _117  and  _119
REMARK   49  A    between atoms: _119  and  _120
REMARK   50  A    between atoms: _119  and  _122
REMARK   51  A    between atoms: _122  and  _123
REMARK   52  A    between atoms: _123  and  _124
REMARK   53  A    between atoms: _124  and  _126
REMARK   54  A    between atoms: _126  and  CA_369
REMARK   55  A    between atoms: _127  and  _129
REMARK   56  A    between atoms: _129  and  _130
REMARK   57  A    between atoms: _129  and  _132
REMARK   58  A    between atoms: _132  and  _133
REMARK   59  A    between atoms: _143  and  _145
REMARK   60  A    between atoms: _145  and  _146
REMARK   61  A    between atoms: _145  and  _148
REMARK   62  A    between atoms: _148  and  _149
REMARK   63  A    between atoms: _152  and  _154
REMARK   64  A    between atoms: _154  and  _155
REMARK   65  A    between atoms: _154  and  _157
REMARK   66  A    between atoms: _157  and  _158
REMARK   67  A    between atoms: _163  and  _165
REMARK   68  A    between atoms: _165  and  _166
REMARK   69  A    between atoms: _165  and  _168
REMARK   70  A    between atoms: _168  and  _169
REMARK   71  A    between atoms: _172  and  _174
REMARK   72  A    between atoms: _174  and  _175
REMARK   73  A    between atoms: _174  and  _177
REMARK   74  A    between atoms: _177  and  _178
REMARK   75  A    between atoms: _184  and  _186
REMARK   76  A    between atoms: _186  and  _187
REMARK   77  A    between atoms: _186  and  _189
REMARK   78  A    between atoms: _189  and  _190
REMARK   79  A    between atoms: _193  and  _195
REMARK   80  A    between atoms: _195  and  _196
REMARK   81  A    between atoms: _195  and  _198
REMARK   82  A    between atoms: _198  and  _199
REMARK   83  A    between atoms: _202  and  _204
REMARK   84  A    between atoms: _204  and  _205
REMARK   85  A    between atoms: _208  and  _210
REMARK   86  A    between atoms: _210  and  _211
REMARK   87  A    between atoms: _210  and  _213
REMARK   88  A    between atoms: _216  and  _218
REMARK   89  A    between atoms: _218  and  _219
REMARK   90  A    between atoms: _218  and  _221
REMARK   91  A    between atoms: _221  and  _222
REMARK   92  A    between atoms: _226  and  ZN_368
REMARK   93  A    between atoms: _227  and  _229
REMARK   94  A    between atoms: _229  and  _230
REMARK   95  A    between atoms: _229  and  _232
REMARK   96  A    between atoms: _232  and  _233
REMARK   97  A    between atoms: _233  and  _234
REMARK   98  A    between atoms: _237  and  _239
REMARK   99  A    between atoms: _239  and  _240
REMARK  100  A    between atoms: _239  and  _242
REMARK  101  A    between atoms: _242  and  _243
REMARK  102  A    between atoms: _246  and  _248
REMARK  103  A    between atoms: _248  and  _249
REMARK  104  A    between atoms: _248  and  _251
REMARK  105  A    between atoms: _251  and  _252
REMARK  106  A    between atoms: _256  and  ZN_368
REMARK  107  A    between atoms: _257  and  _259
REMARK  108  A    between atoms: _259  and  _260
REMARK  109  A    between atoms: _259  and  _262
REMARK  110  A    between atoms: _262  and  _263
REMARK  111  A    between atoms: _265  and  _267
REMARK  112  A    between atoms: _267  and  _268
REMARK  113  A    between atoms: _267  and  _270
REMARK  114  A    between atoms: _270  and  _271
REMARK  115  A    between atoms: _274  and  _276
REMARK  116  A    between atoms: _276  and  _277
REMARK  117  A    between atoms: _279  and  _281
REMARK  118  A    between atoms: _281  and  _282
REMARK  119  A    between atoms: _281  and  _284
REMARK  120  A    between atoms: _284  and  _285
REMARK  121  A    between atoms: _289  and  ZN_368
REMARK  122  A    between atoms: _290  and  _292
REMARK  123  A    between atoms: _292  and  _293
REMARK  124  A    between atoms: _296  and  _298
REMARK  125  A    between atoms: _298  and  _299
REMARK  126  A    between atoms: _298  and  _301
REMARK  127  A    between atoms: _304  and  _306
REMARK  128  A    between atoms: _306  and  _307
REMARK  129  A    between atoms: _306  and  _309
REMARK  130  A    between atoms: _309  and  _310
REMARK  131  A    between atoms: _310  and  _311
REMARK  132  A    between atoms: _313  and  _315
REMARK  133  A    between atoms: _315  and  _316
REMARK  134  A    between atoms: _315  and  _318
REMARK  135  A    between atoms: _318  and  _319
REMARK  136  A    between atoms: _326  and  _327
REMARK  137  A    between atoms: _332  and  _334
REMARK  138  A    between atoms: _334  and  _335
REMARK  139  A    between atoms: _334  and  _337
REMARK  140  A    between atoms: _337  and  _338
REMARK  141  A    between atoms: _341  and  _343
REMARK  142  A    between atoms: _343  and  _344
REMARK  143  A    between atoms: _343  and  _346
REMARK  144  A    between atoms: _346  and  _347
REMARK  145  A    between atoms: _352  and  _353
REMARK  146  A    between atoms: _355  and  _357
REMARK  147  A    between atoms: _357  and  _358
REMARK  148  A    between atoms: _357  and  _360
REMARK  149  A    between atoms: _360  and  _361
REMARK  150  A    between atoms: _361  and  _362
REMARK  151  A    between atoms: _362  and  _363
REMARK  152  A    between atoms: _363  and  _364
REMARK                            x       y       z     vdW  Elec       q    Type
REMARK                         _______ _______ _______ _____ _____    ______ ____
ROOT
ATOM      1  O   HOH     1     -11.514  -9.797 -20.308  0.00  0.00    +0.000 OA
ENDROOT
TORSDOF 0
REMARK  Name = ../refined-set-2016/3f18/3f18_pocket.pdb
REMARK  152 active torsions:
REMARK  status: ('A' for Active; 'I' for Inactive)
REMARK    1  A    between atoms: _1  and  _3
REMARK    2  A    between atoms: _3  and  _4
REMARK    3  A    between atoms: _3  and  _6
REMARK    4  A    between atoms: _6  and  _7
REMARK    5  A    between atoms: _13  and  _15
REMARK    6  A    between atoms: _15  and  _16
REMARK    7  A    between atoms: _15  and  _18
REMARK    8  A    between atoms: _18  and  _19
REMARK    9  A    between atoms: _22  and  _24
REMARK   10  A    between atoms: _24  and  _25
REMARK   11  A    between atoms: _27  and  _29
REMARK   12  A    between atoms: _29  and  _30
REMARK   13  A    between atoms: _32  and  _34
REMARK   14  A    between atoms: _34  and  _35
REMARK   15  A    between atoms: _34  and  _37
REMARK   16  A    between atoms: _35  and  _36
REMARK   17  A    between atoms: _35  and  _41
REMARK   18  A    between atoms: _36  and  CA_369
REMARK   19  A    between atoms: _37  and  _38
REMARK   20  A    between atoms: _41  and  _43
REMARK   21  A    between atoms: _43  and  _44
REMARK   22  A    between atoms: _43  and  _46
REMARK   23  A    between atoms: _46  and  _47
REMARK   24  A    between atoms: _50  and  _52
REMARK   25  A    between atoms: _52  and  _53
REMARK   26  A    between atoms: _56  and  _58
REMARK   27  A    between atoms: _58  and  _59
REMARK   28  A    between atoms: _58  and  _61
REMARK   29  A    between atoms: _61  and  _62
REMARK   30  A    between atoms: _67  and  _69
REMARK   31  A    between atoms: _69  and  _70
REMARK   32  A    between atoms: _73  and  _75
REMARK   33  A    between atoms: _75  and  _76
REMARK   34  A    between atoms: _75  and  _78
REMARK   35  A    between atoms: _78  and  _79
REMARK   36  A    between atoms: _85  and  _87
REMARK   37  A    between atoms: _87  and  _88
REMARK   38  A    between atoms: _87  and  _90
REMARK   39  A    between atoms: _90  and  _91
REMARK   40  A    between atoms: _96  and  _98
REMARK   41  A    between atoms: _98  and  _99
REMARK   42  A    between atoms: _98  and  _101
REMARK   43  A    between atoms: _101  and  _102
REMARK   44  A    between atoms: _108  and  _110
REMARK   45  A    between atoms: _110  and  _111
REMARK   46  A    between atoms: _110  and  _113
REMARK   47  A    between atoms: _113  and  _114
REMARK   48  A    between atoms: _117  and  _119
REMARK   49  A    between atoms: _119  and  _120
REMARK   50  A    between atoms: _119  and  _122
REMARK   51  A    between atoms: _122  and  _123
REMARK   52  A    between atoms: _123  and  _124
REMARK   53  A    between atoms: _124  and  _126
REMARK   54  A    between atoms: _126  and  CA_369
REMARK   55  A    between atoms: _127  and  _129
REMARK   56  A    between atoms: _129  and  _130
REMARK   57  A    between atoms: _129  and  _132
REMARK   58  A    between atoms: _132  and  _133
REMARK   59  A    between atoms: _143  and  _145
REMARK   60  A    between atoms: _145  and  _146
REMARK   61  A    between atoms: _145  and  _148
REMARK   62  A    between atoms: _148  and  _149
REMARK   63  A    between atoms: _152  and  _154
REMARK   64  A    between atoms: _154  and  _155
REMARK   65  A    between atoms: _154  and  _157
REMARK   66  A    between atoms: _157  and  _158
REMARK   67  A    between atoms: _163  and  _165
REMARK   68  A    between atoms: _165  and  _166
REMARK   69  A    between atoms: _165  and  _168
REMARK   70  A    between atoms: _168  and  _169
REMARK   71  A    between atoms: _172  and  _174
REMARK   72  A    between atoms: _174  and  _175
REMARK   73  A    between atoms: _174  and  _177
REMARK   74  A    between atoms: _177  and  _178
REMARK   75  A    between atoms: _184  and  _186
REMARK   76  A    between atoms: _186  and  _187
REMARK   77  A    between atoms: _186  and  _189
REMARK   78  A    between atoms: _189  and  _190
REMARK   79  A    between atoms: _193  and  _195
REMARK   80  A    between atoms: _195  and  _196
REMARK   81  A    between atoms: _195  and  _198
REMARK   82  A    between atoms: _198  and  _199
REMARK   83  A    between atoms: _202  and  _204
REMARK   84  A    between atoms: _204  and  _205
REMARK   85  A    between atoms: _208  and  _210
REMARK   86  A    between atoms: _210  and  _211
REMARK   87  A    between atoms: _210  and  _213
REMARK   88  A    between atoms: _216  and  _218
REMARK   89  A    between atoms: _218  and  _219
REMARK   90  A    between atoms: _218  and  _221
REMARK   91  A    between atoms: _221  and  _222
REMARK   92  A    between atoms: _226  and  ZN_368
REMARK   93  A    between atoms: _227  and  _229
REMARK   94  A    between atoms: _229  and  _230
REMARK   95  A    between atoms: _229  and  _232
REMARK   96  A    between atoms: _232  and  _233
REMARK   97  A    between atoms: _233  and  _234
REMARK   98  A    between atoms: _237  and  _239
REMARK   99  A    between atoms: _239  and  _240
REMARK  100  A    between atoms: _239  and  _242
REMARK  101  A    between atoms: _242  and  _243
REMARK  102  A    between atoms: _246  and  _248
REMARK  103  A    between atoms: _248  and  _249
REMARK  104  A    between atoms: _248  and  _251
REMARK  105  A    between atoms: _251  and  _252
REMARK  106  A    between atoms: _256  and  ZN_368
REMARK  107  A    between atoms: _257  and  _259
REMARK  108  A    between atoms: _259  and  _260
REMARK  109  A    between atoms: _259  and  _262
REMARK  110  A    between atoms: _262  and  _263
REMARK  111  A    between atoms: _265  and  _267
REMARK  112  A    between atoms: _267  and  _268
REMARK  113  A    between atoms: _267  and  _270
REMARK  114  A    between atoms: _270  and  _271
REMARK  115  A    between atoms: _274  and  _276
REMARK  116  A    between atoms: _276  and  _277
REMARK  117  A    between atoms: _279  and  _281
REMARK  118  A    between atoms: _281  and  _282
REMARK  119  A    between atoms: _281  and  _284
REMARK  120  A    between atoms: _284  and  _285
REMARK  121  A    between atoms: _289  and  ZN_368
REMARK  122  A    between atoms: _290  and  _292
REMARK  123  A    between atoms: _292  and  _293
REMARK  124  A    between atoms: _296  and  _298
REMARK  125  A    between atoms: _298  and  _299
REMARK  126  A    between atoms: _298  and  _301
REMARK  127  A    between atoms: _304  and  _306
REMARK  128  A    between atoms: _306  and  _307
REMARK  129  A    between atoms: _306  and  _309
REMARK  130  A    between atoms: _309  and  _310
REMARK  131  A    between atoms: _310  and  _311
REMARK  132  A    between atoms: _313  and  _315
REMARK  133  A    between atoms: _315  and  _316
REMARK  134  A    between atoms: _315  and  _318
REMARK  135  A    between atoms: _318  and  _319
REMARK  136  A    between atoms: _326  and  _327
REMARK  137  A    between atoms: _332  and  _334
REMARK  138  A    between atoms: _334  and  _335
REMARK  139  A    between atoms: _334  and  _337
REMARK  140  A    between atoms: _337  and  _338
REMARK  141  A    between atoms: _341  and  _343
REMARK  142  A    between atoms: _343  and  _344
REMARK  143  A    between atoms: _343  and  _346
REMARK  144  A    between atoms: _346  and  _347
REMARK  145  A    between atoms: _352  and  _353
REMARK  146  A    between atoms: _355  and  _357
REMARK  147  A    between atoms: _357  and  _358
REMARK  148  A    between atoms: _357  and  _360
REMARK  149  A    between atoms: _360  and  _361
REMARK  150  A    between atoms: _361  and  _362
REMARK  151  A    between atoms: _362  and  _363
REMARK  152  A    between atoms: _363  and  _364
REMARK                            x       y       z     vdW  Elec       q    Type
REMARK                         _______ _______ _______ _____ _____    ______ ____
ROOT
ATOM      1  O   HOH     1     -13.656 -12.959 -18.040  0.00  0.00    +0.000 OA
ENDROOT
TORSDOF 0
REMARK  Name = ../refined-set-2016/3f18/3f18_pocket.pdb
REMARK  152 active torsions:
REMARK  status: ('A' for Active; 'I' for Inactive)
REMARK    1  A    between atoms: _1  and  _3
REMARK    2  A    between atoms: _3  and  _4
REMARK    3  A    between atoms: _3  and  _6
REMARK    4  A    between atoms: _6  and  _7
REMARK    5  A    between atoms: _13  and  _15
REMARK    6  A    between atoms: _15  and  _16
REMARK    7  A    between atoms: _15  and  _18
REMARK    8  A    between atoms: _18  and  _19
REMARK    9  A    between atoms: _22  and  _24
REMARK   10  A    between atoms: _24  and  _25
REMARK   11  A    between atoms: _27  and  _29
REMARK   12  A    between atoms: _29  and  _30
REMARK   13  A    between atoms: _32  and  _34
REMARK   14  A    between atoms: _34  and  _35
REMARK   15  A    between atoms: _34  and  _37
REMARK   16  A    between atoms: _35  and  _36
REMARK   17  A    between atoms: _35  and  _41
REMARK   18  A    between atoms: _36  and  CA_369
REMARK   19  A    between atoms: _37  and  _38
REMARK   20  A    between atoms: _41  and  _43
REMARK   21  A    between atoms: _43  and  _44
REMARK   22  A    between atoms: _43  and  _46
REMARK   23  A    between atoms: _46  and  _47
REMARK   24  A    between atoms: _50  and  _52
REMARK   25  A    between atoms: _52  and  _53
REMARK   26  A    between atoms: _56  and  _58
REMARK   27  A    between atoms: _58  and  _59
REMARK   28  A    between atoms: _58  and  _61
REMARK   29  A    between atoms: _61  and  _62
REMARK   30  A    between atoms: _67  and  _69
REMARK   31  A    between atoms: _69  and  _70
REMARK   32  A    between atoms: _73  and  _75
REMARK   33  A    between atoms: _75  and  _76
REMARK   34  A    between atoms: _75  and  _78
REMARK   35  A    between atoms: _78  and  _79
REMARK   36  A    between atoms: _85  and  _87
REMARK   37  A    between atoms: _87  and  _88
REMARK   38  A    between atoms: _87  and  _90
REMARK   39  A    between atoms: _90  and  _91
REMARK   40  A    between atoms: _96  and  _98
REMARK   41  A    between atoms: _98  and  _99
REMARK   42  A    between atoms: _98  and  _101
REMARK   43  A    between atoms: _101  and  _102
REMARK   44  A    between atoms: _108  and  _110
REMARK   45  A    between atoms: _110  and  _111
REMARK   46  A    between atoms: _110  and  _113
REMARK   47  A    between atoms: _113  and  _114
REMARK   48  A    between atoms: _117  and  _119
REMARK   49  A    between atoms: _119  and  _120
REMARK   50  A    between atoms: _119  and  _122
REMARK   51  A    between atoms: _122  and  _123
REMARK   52  A    between atoms: _123  and  _124
REMARK   53  A    between atoms: _124  and  _126
REMARK   54  A    between atoms: _126  and  CA_369
REMARK   55  A    between atoms: _127  and  _129
REMARK   56  A    between atoms: _129  and  _130
REMARK   57  A    between atoms: _129  and  _132
REMARK   58  A    between atoms: _132  and  _133
REMARK   59  A    between atoms: _143  and  _145
REMARK   60  A    between atoms: _145  and  _146
REMARK   61  A    between atoms: _145  and  _148
REMARK   62  A    between atoms: _148  and  _149
REMARK   63  A    between atoms: _152  and  _154
REMARK   64  A    between atoms: _154  and  _155
REMARK   65  A    between atoms: _154  and  _157
REMARK   66  A    between atoms: _157  and  _158
REMARK   67  A    between atoms: _163  and  _165
REMARK   68  A    between atoms: _165  and  _166
REMARK   69  A    between atoms: _165  and  _168
REMARK   70  A    between atoms: _168  and  _169
REMARK   71  A    between atoms: _172  and  _174
REMARK   72  A    between atoms: _174  and  _175
REMARK   73  A    between atoms: _174  and  _177
REMARK   74  A    between atoms: _177  and  _178
REMARK   75  A    between atoms: _184  and  _186
REMARK   76  A    between atoms: _186  and  _187
REMARK   77  A    between atoms: _186  and  _189
REMARK   78  A    between atoms: _189  and  _190
REMARK   79  A    between atoms: _193  and  _195
REMARK   80  A    between atoms: _195  and  _196
REMARK   81  A    between atoms: _195  and  _198
REMARK   82  A    between atoms: _198  and  _199
REMARK   83  A    between atoms: _202  and  _204
REMARK   84  A    between atoms: _204  and  _205
REMARK   85  A    between atoms: _208  and  _210
REMARK   86  A    between atoms: _210  and  _211
REMARK   87  A    between atoms: _210  and  _213
REMARK   88  A    between atoms: _216  and  _218
REMARK   89  A    between atoms: _218  and  _219
REMARK   90  A    between atoms: _218  and  _221
REMARK   91  A    between atoms: _221  and  _222
REMARK   92  A    between atoms: _226  and  ZN_368
REMARK   93  A    between atoms: _227  and  _229
REMARK   94  A    between atoms: _229  and  _230
REMARK   95  A    between atoms: _229  and  _232
REMARK   96  A    between atoms: _232  and  _233
REMARK   97  A    between atoms: _233  and  _234
REMARK   98  A    between atoms: _237  and  _239
REMARK   99  A    between atoms: _239  and  _240
REMARK  100  A    between atoms: _239  and  _242
REMARK  101  A    between atoms: _242  and  _243
REMARK  102  A    between atoms: _246  and  _248
REMARK  103  A    between atoms: _248  and  _249
REMARK  104  A    between atoms: _248  and  _251
REMARK  105  A    between atoms: _251  and  _252
REMARK  106  A    between atoms: _256  and  ZN_368
REMARK  107  A    between atoms: _257  and  _259
REMARK  108  A    between atoms: _259  and  _260
REMARK  109  A    between atoms: _259  and  _262
REMARK  110  A    between atoms: _262  and  _263
REMARK  111  A    between atoms: _265  and  _267
REMARK  112  A    between atoms: _267  and  _268
REMARK  113  A    between atoms: _267  and  _270
REMARK  114  A    between atoms: _270  and  _271
REMARK  115  A    between atoms: _274  and  _276
REMARK  116  A    between atoms: _276  and  _277
REMARK  117  A    between atoms: _279  and  _281
REMARK  118  A    between atoms: _281  and  _282
REMARK  119  A    between atoms: _281  and  _284
REMARK  120  A    between atoms: _284  and  _285
REMARK  121  A    between atoms: _289  and  ZN_368
REMARK  122  A    between atoms: _290  and  _292
REMARK  123  A    between atoms: _292  and  _293
REMARK  124  A    between atoms: _296  and  _298
REMARK  125  A    between atoms: _298  and  _299
REMARK  126  A    between atoms: _298  and  _301
REMARK  127  A    between atoms: _304  and  _306
REMARK  128  A    between atoms: _306  and  _307
REMARK  129  A    between atoms: _306  and  _309
REMARK  130  A    between atoms: _309  and  _310
REMARK  131  A    between atoms: _310  and  _311
REMARK  132  A    between atoms: _313  and  _315
REMARK  133  A    between atoms: _315  and  _316
REMARK  134  A    between atoms: _315  and  _318
REMARK  135  A    between atoms: _318  and  _319
REMARK  136  A    between atoms: _326  and  _327
REMARK  137  A    between atoms: _332  and  _334
REMARK  138  A    between atoms: _334  and  _335
REMARK  139  A    between atoms: _334  and  _337
REMARK  140  A    between atoms: _337  and  _338
REMARK  141  A    between atoms: _341  and  _343
REMARK  142  A    between atoms: _343  and  _344
REMARK  143  A    between atoms: _343  and  _346
REMARK  144  A    between atoms: _346  and  _347
REMARK  145  A    between atoms: _352  and  _353
REMARK  146  A    between atoms: _355  and  _357
REMARK  147  A    between atoms: _357  and  _358
REMARK  148  A    between atoms: _357  and  _360
REMARK  149  A    between atoms: _360  and  _361
REMARK  150  A    between atoms: _361  and  _362
REMARK  151  A    between atoms: _362  and  _363
REMARK  152  A    between atoms: _363  and  _364
REMARK                            x       y       z     vdW  Elec       q    Type
REMARK                         _______ _______ _______ _____ _____    ______ ____
ROOT
ATOM      1  O   HOH     1     -14.215  -0.225 -21.466  0.00  0.00    +0.000 OA
ENDROOT
TORSDOF 0
REMARK  Name = ../refined-set-2016/3f18/3f18_pocket.pdb
REMARK  152 active torsions:
REMARK  status: ('A' for Active; 'I' for Inactive)
REMARK    1  A    between atoms: _1  and  _3
REMARK    2  A    between atoms: _3  and  _4
REMARK    3  A    between atoms: _3  and  _6
REMARK    4  A    between atoms: _6  and  _7
REMARK    5  A    between atoms: _13  and  _15
REMARK    6  A    between atoms: _15  and  _16
REMARK    7  A    between atoms: _15  and  _18
REMARK    8  A    between atoms: _18  and  _19
REMARK    9  A    between atoms: _22  and  _24
REMARK   10  A    between atoms: _24  and  _25
REMARK   11  A    between atoms: _27  and  _29
REMARK   12  A    between atoms: _29  and  _30
REMARK   13  A    between atoms: _32  and  _34
REMARK   14  A    between atoms: _34  and  _35
REMARK   15  A    between atoms: _34  and  _37
REMARK   16  A    between atoms: _35  and  _36
REMARK   17  A    between atoms: _35  and  _41
REMARK   18  A    between atoms: _36  and  CA_369
REMARK   19  A    between atoms: _37  and  _38
REMARK   20  A    between atoms: _41  and  _43
REMARK   21  A    between atoms: _43  and  _44
REMARK   22  A    between atoms: _43  and  _46
REMARK   23  A    between atoms: _46  and  _47
REMARK   24  A    between atoms: _50  and  _52
REMARK   25  A    between atoms: _52  and  _53
REMARK   26  A    between atoms: _56  and  _58
REMARK   27  A    between atoms: _58  and  _59
REMARK   28  A    between atoms: _58  and  _61
REMARK   29  A    between atoms: _61  and  _62
REMARK   30  A    between atoms: _67  and  _69
REMARK   31  A    between atoms: _69  and  _70
REMARK   32  A    between atoms: _73  and  _75
REMARK   33  A    between atoms: _75  and  _76
REMARK   34  A    between atoms: _75  and  _78
REMARK   35  A    between atoms: _78  and  _79
REMARK   36  A    between atoms: _85  and  _87
REMARK   37  A    between atoms: _87  and  _88
REMARK   38  A    between atoms: _87  and  _90
REMARK   39  A    between atoms: _90  and  _91
REMARK   40  A    between atoms: _96  and  _98
REMARK   41  A    between atoms: _98  and  _99
REMARK   42  A    between atoms: _98  and  _101
REMARK   43  A    between atoms: _101  and  _102
REMARK   44  A    between atoms: _108  and  _110
REMARK   45  A    between atoms: _110  and  _111
REMARK   46  A    between atoms: _110  and  _113
REMARK   47  A    between atoms: _113  and  _114
REMARK   48  A    between atoms: _117  and  _119
REMARK   49  A    between atoms: _119  and  _120
REMARK   50  A    between atoms: _119  and  _122
REMARK   51  A    between atoms: _122  and  _123
REMARK   52  A    between atoms: _123  and  _124
REMARK   53  A    between atoms: _124  and  _126
REMARK   54  A    between atoms: _126  and  CA_369
REMARK   55  A    between atoms: _127  and  _129
REMARK   56  A    between atoms: _129  and  _130
REMARK   57  A    between atoms: _129  and  _132
REMARK   58  A    between atoms: _132  and  _133
REMARK   59  A    between atoms: _143  and  _145
REMARK   60  A    between atoms: _145  and  _146
REMARK   61  A    between atoms: _145  and  _148
REMARK   62  A    between atoms: _148  and  _149
REMARK   63  A    between atoms: _152  and  _154
REMARK   64  A    between atoms: _154  and  _155
REMARK   65  A    between atoms: _154  and  _157
REMARK   66  A    between atoms: _157  and  _158
REMARK   67  A    between atoms: _163  and  _165
REMARK   68  A    between atoms: _165  and  _166
REMARK   69  A    between atoms: _165  and  _168
REMARK   70  A    between atoms: _168  and  _169
REMARK   71  A    between atoms: _172  and  _174
REMARK   72  A    between atoms: _174  and  _175
REMARK   73  A    between atoms: _174  and  _177
REMARK   74  A    between atoms: _177  and  _178
REMARK   75  A    between atoms: _184  and  _186
REMARK   76  A    between atoms: _186  and  _187
REMARK   77  A    between atoms: _186  and  _189
REMARK   78  A    between atoms: _189  and  _190
REMARK   79  A    between atoms: _193  and  _195
REMARK   80  A    between atoms: _195  and  _196
REMARK   81  A    between atoms: _195  and  _198
REMARK   82  A    between atoms: _198  and  _199
REMARK   83  A    between atoms: _202  and  _204
REMARK   84  A    between atoms: _204  and  _205
REMARK   85  A    between atoms: _208  and  _210
REMARK   86  A    between atoms: _210  and  _211
REMARK   87  A    between atoms: _210  and  _213
REMARK   88  A    between atoms: _216  and  _218
REMARK   89  A    between atoms: _218  and  _219
REMARK   90  A    between atoms: _218  and  _221
REMARK   91  A    between atoms: _221  and  _222
REMARK   92  A    between atoms: _226  and  ZN_368
REMARK   93  A    between atoms: _227  and  _229
REMARK   94  A    between atoms: _229  and  _230
REMARK   95  A    between atoms: _229  and  _232
REMARK   96  A    between atoms: _232  and  _233
REMARK   97  A    between atoms: _233  and  _234
REMARK   98  A    between atoms: _237  and  _239
REMARK   99  A    between atoms: _239  and  _240
REMARK  100  A    between atoms: _239  and  _242
REMARK  101  A    between atoms: _242  and  _243
REMARK  102  A    between atoms: _246  and  _248
REMARK  103  A    between atoms: _248  and  _249
REMARK  104  A    between atoms: _248  and  _251
REMARK  105  A    between atoms: _251  and  _252
REMARK  106  A    between atoms: _256  and  ZN_368
REMARK  107  A    between atoms: _257  and  _259
REMARK  108  A    between atoms: _259  and  _260
REMARK  109  A    between atoms: _259  and  _262
REMARK  110  A    between atoms: _262  and  _263
REMARK  111  A    between atoms: _265  and  _267
REMARK  112  A    between atoms: _267  and  _268
REMARK  113  A    between atoms: _267  and  _270
REMARK  114  A    between atoms: _270  and  _271
REMARK  115  A    between atoms: _274  and  _276
REMARK  116  A    between atoms: _276  and  _277
REMARK  117  A    between atoms: _279  and  _281
REMARK  118  A    between atoms: _281  and  _282
REMARK  119  A    between atoms: _281  and  _284
REMARK  120  A    between atoms: _284  and  _285
REMARK  121  A    between atoms: _289  and  ZN_368
REMARK  122  A    between atoms: _290  and  _292
REMARK  123  A    between atoms: _292  and  _293
REMARK  124  A    between atoms: _296  and  _298
REMARK  125  A    between atoms: _298  and  _299
REMARK  126  A    between atoms: _298  and  _301
REMARK  127  A    between atoms: _304  and  _306
REMARK  128  A    between atoms: _306  and  _307
REMARK  129  A    between atoms: _306  and  _309
REMARK  130  A    between atoms: _309  and  _310
REMARK  131  A    between atoms: _310  and  _311
REMARK  132  A    between atoms: _313  and  _315
REMARK  133  A    between atoms: _315  and  _316
REMARK  134  A    between atoms: _315  and  _318
REMARK  135  A    between atoms: _318  and  _319
REMARK  136  A    between atoms: _326  and  _327
REMARK  137  A    between atoms: _332  and  _334
REMARK  138  A    between atoms: _334  and  _335
REMARK  139  A    between atoms: _334  and  _337
REMARK  140  A    between atoms: _337  and  _338
REMARK  141  A    between atoms: _341  and  _343
REMARK  142  A    between atoms: _343  and  _344
REMARK  143  A    between atoms: _343  and  _346
REMARK  144  A    between atoms: _346  and  _347
REMARK  145  A    between atoms: _352  and  _353
REMARK  146  A    between atoms: _355  and  _357
REMARK  147  A    between atoms: _357  and  _358
REMARK  148  A    between atoms: _357  and  _360
REMARK  149  A    between atoms: _360  and  _361
REMARK  150  A    between atoms: _361  and  _362
REMARK  151  A    between atoms: _362  and  _363
REMARK  152  A    between atoms: _363  and  _364
REMARK                            x       y       z     vdW  Elec       q    Type
REMARK                         _______ _______ _______ _____ _____    ______ ____
ROOT
ATOM      1  O   HOH     1     -11.438   2.493 -21.028  0.00  0.00    +0.000 OA
ENDROOT
TORSDOF 0
REMARK  Name = ../refined-set-2016/3f18/3f18_pocket.pdb
REMARK  152 active torsions:
REMARK  status: ('A' for Active; 'I' for Inactive)
REMARK    1  A    between atoms: _1  and  _3
REMARK    2  A    between atoms: _3  and  _4
REMARK    3  A    between atoms: _3  and  _6
REMARK    4  A    between atoms: _6  and  _7
REMARK    5  A    between atoms: _13  and  _15
REMARK    6  A    between atoms: _15  and  _16
REMARK    7  A    between atoms: _15  and  _18
REMARK    8  A    between atoms: _18  and  _19
REMARK    9  A    between atoms: _22  and  _24
REMARK   10  A    between atoms: _24  and  _25
REMARK   11  A    between atoms: _27  and  _29
REMARK   12  A    between atoms: _29  and  _30
REMARK   13  A    between atoms: _32  and  _34
REMARK   14  A    between atoms: _34  and  _35
REMARK   15  A    between atoms: _34  and  _37
REMARK   16  A    between atoms: _35  and  _36
REMARK   17  A    between atoms: _35  and  _41
REMARK   18  A    between atoms: _36  and  CA_369
REMARK   19  A    between atoms: _37  and  _38
REMARK   20  A    between atoms: _41  and  _43
REMARK   21  A    between atoms: _43  and  _44
REMARK   22  A    between atoms: _43  and  _46
REMARK   23  A    between atoms: _46  and  _47
REMARK   24  A    between atoms: _50  and  _52
REMARK   25  A    between atoms: _52  and  _53
REMARK   26  A    between atoms: _56  and  _58
REMARK   27  A    between atoms: _58  and  _59
REMARK   28  A    between atoms: _58  and  _61
REMARK   29  A    between atoms: _61  and  _62
REMARK   30  A    between atoms: _67  and  _69
REMARK   31  A    between atoms: _69  and  _70
REMARK   32  A    between atoms: _73  and  _75
REMARK   33  A    between atoms: _75  and  _76
REMARK   34  A    between atoms: _75  and  _78
REMARK   35  A    between atoms: _78  and  _79
REMARK   36  A    between atoms: _85  and  _87
REMARK   37  A    between atoms: _87  and  _88
REMARK   38  A    between atoms: _87  and  _90
REMARK   39  A    between atoms: _90  and  _91
REMARK   40  A    between atoms: _96  and  _98
REMARK   41  A    between atoms: _98  and  _99
REMARK   42  A    between atoms: _98  and  _101
REMARK   43  A    between atoms: _101  and  _102
REMARK   44  A    between atoms: _108  and  _110
REMARK   45  A    between atoms: _110  and  _111
REMARK   46  A    between atoms: _110  and  _113
REMARK   47  A    between atoms: _113  and  _114
REMARK   48  A    between atoms: _117  and  _119
REMARK   49  A    between atoms: _119  and  _120
REMARK   50  A    between atoms: _119  and  _122
REMARK   51  A    between atoms: _122  and  _123
REMARK   52  A    between atoms: _123  and  _124
REMARK   53  A    between atoms: _124  and  _126
REMARK   54  A    between atoms: _126  and  CA_369
REMARK   55  A    between atoms: _127  and  _129
REMARK   56  A    between atoms: _129  and  _130
REMARK   57  A    between atoms: _129  and  _132
REMARK   58  A    between atoms: _132  and  _133
REMARK   59  A    between atoms: _143  and  _145
REMARK   60  A    between atoms: _145  and  _146
REMARK   61  A    between atoms: _145  and  _148
REMARK   62  A    between atoms: _148  and  _149
REMARK   63  A    between atoms: _152  and  _154
REMARK   64  A    between atoms: _154  and  _155
REMARK   65  A    between atoms: _154  and  _157
REMARK   66  A    between atoms: _157  and  _158
REMARK   67  A    between atoms: _163  and  _165
REMARK   68  A    between atoms: _165  and  _166
REMARK   69  A    between atoms: _165  and  _168
REMARK   70  A    between atoms: _168  and  _169
REMARK   71  A    between atoms: _172  and  _174
REMARK   72  A    between atoms: _174  and  _175
REMARK   73  A    between atoms: _174  and  _177
REMARK   74  A    between atoms: _177  and  _178
REMARK   75  A    between atoms: _184  and  _186
REMARK   76  A    between atoms: _186  and  _187
REMARK   77  A    between atoms: _186  and  _189
REMARK   78  A    between atoms: _189  and  _190
REMARK   79  A    between atoms: _193  and  _195
REMARK   80  A    between atoms: _195  and  _196
REMARK   81  A    between atoms: _195  and  _198
REMARK   82  A    between atoms: _198  and  _199
REMARK   83  A    between atoms: _202  and  _204
REMARK   84  A    between atoms: _204  and  _205
REMARK   85  A    between atoms: _208  and  _210
REMARK   86  A    between atoms: _210  and  _211
REMARK   87  A    between atoms: _210  and  _213
REMARK   88  A    between atoms: _216  and  _218
REMARK   89  A    between atoms: _218  and  _219
REMARK   90  A    between atoms: _218  and  _221
REMARK   91  A    between atoms: _221  and  _222
REMARK   92  A    between atoms: _226  and  ZN_368
REMARK   93  A    between atoms: _227  and  _229
REMARK   94  A    between atoms: _229  and  _230
REMARK   95  A    between atoms: _229  and  _232
REMARK   96  A    between atoms: _232  and  _233
REMARK   97  A    between atoms: _233  and  _234
REMARK   98  A    between atoms: _237  and  _239
REMARK   99  A    between atoms: _239  and  _240
REMARK  100  A    between atoms: _239  and  _242
REMARK  101  A    between atoms: _242  and  _243
REMARK  102  A    between atoms: _246  and  _248
REMARK  103  A    between atoms: _248  and  _249
REMARK  104  A    between atoms: _248  and  _251
REMARK  105  A    between atoms: _251  and  _252
REMARK  106  A    between atoms: _256  and  ZN_368
REMARK  107  A    between atoms: _257  and  _259
REMARK  108  A    between atoms: _259  and  _260
REMARK  109  A    between atoms: _259  and  _262
REMARK  110  A    between atoms: _262  and  _263
REMARK  111  A    between atoms: _265  and  _267
REMARK  112  A    between atoms: _267  and  _268
REMARK  113  A    between atoms: _267  and  _270
REMARK  114  A    between atoms: _270  and  _271
REMARK  115  A    between atoms: _274  and  _276
REMARK  116  A    between atoms: _276  and  _277
REMARK  117  A    between atoms: _279  and  _281
REMARK  118  A    between atoms: _281  and  _282
REMARK  119  A    between atoms: _281  and  _284
REMARK  120  A    between atoms: _284  and  _285
REMARK  121  A    between atoms: _289  and  ZN_368
REMARK  122  A    between atoms: _290  and  _292
REMARK  123  A    between atoms: _292  and  _293
REMARK  124  A    between atoms: _296  and  _298
REMARK  125  A    between atoms: _298  and  _299
REMARK  126  A    between atoms: _298  and  _301
REMARK  127  A    between atoms: _304  and  _306
REMARK  128  A    between atoms: _306  and  _307
REMARK  129  A    between atoms: _306  and  _309
REMARK  130  A    between atoms: _309  and  _310
REMARK  131  A    between atoms: _310  and  _311
REMARK  132  A    between atoms: _313  and  _315
REMARK  133  A    between atoms: _315  and  _316
REMARK  134  A    between atoms: _315  and  _318
REMARK  135  A    between atoms: _318  and  _319
REMARK  136  A    between atoms: _326  and  _327
REMARK  137  A    between atoms: _332  and  _334
REMARK  138  A    between atoms: _334  and  _335
REMARK  139  A    between atoms: _334  and  _337
REMARK  140  A    between atoms: _337  and  _338
REMARK  141  A    between atoms: _341  and  _343
REMARK  142  A    between atoms: _343  and  _344
REMARK  143  A    between atoms: _343  and  _346
REMARK  144  A    between atoms: _346  and  _347
REMARK  145  A    between atoms: _352  and  _353
REMARK  146  A    between atoms: _355  and  _357
REMARK  147  A    between atoms: _357  and  _358
REMARK  148  A    between atoms: _357  and  _360
REMARK  149  A    between atoms: _360  and  _361
REMARK  150  A    between atoms: _361  and  _362
REMARK  151  A    between atoms: _362  and  _363
REMARK  152  A    between atoms: _363  and  _364
REMARK                            x       y       z     vdW  Elec       q    Type
REMARK                         _______ _______ _______ _____ _____    ______ ____
ROOT
ATOM      1  O   HOH     1     -15.625   3.662 -20.073  0.00  0.00    +0.000 OA
ENDROOT
TORSDOF 0
REMARK  Name = ../refined-set-2016/3f18/3f18_pocket.pdb
REMARK  152 active torsions:
REMARK  status: ('A' for Active; 'I' for Inactive)
REMARK    1  A    between atoms: _1  and  _3
REMARK    2  A    between atoms: _3  and  _4
REMARK    3  A    between atoms: _3  and  _6
REMARK    4  A    between atoms: _6  and  _7
REMARK    5  A    between atoms: _13  and  _15
REMARK    6  A    between atoms: _15  and  _16
REMARK    7  A    between atoms: _15  and  _18
REMARK    8  A    between atoms: _18  and  _19
REMARK    9  A    between atoms: _22  and  _24
REMARK   10  A    between atoms: _24  and  _25
REMARK   11  A    between atoms: _27  and  _29
REMARK   12  A    between atoms: _29  and  _30
REMARK   13  A    between atoms: _32  and  _34
REMARK   14  A    between atoms: _34  and  _35
REMARK   15  A    between atoms: _34  and  _37
REMARK   16  A    between atoms: _35  and  _36
REMARK   17  A    between atoms: _35  and  _41
REMARK   18  A    between atoms: _36  and  CA_369
REMARK   19  A    between atoms: _37  and  _38
REMARK   20  A    between atoms: _41  and  _43
REMARK   21  A    between atoms: _43  and  _44
REMARK   22  A    between atoms: _43  and  _46
REMARK   23  A    between atoms: _46  and  _47
REMARK   24  A    between atoms: _50  and  _52
REMARK   25  A    between atoms: _52  and  _53
REMARK   26  A    between atoms: _56  and  _58
REMARK   27  A    between atoms: _58  and  _59
REMARK   28  A    between atoms: _58  and  _61
REMARK   29  A    between atoms: _61  and  _62
REMARK   30  A    between atoms: _67  and  _69
REMARK   31  A    between atoms: _69  and  _70
REMARK   32  A    between atoms: _73  and  _75
REMARK   33  A    between atoms: _75  and  _76
REMARK   34  A    between atoms: _75  and  _78
REMARK   35  A    between atoms: _78  and  _79
REMARK   36  A    between atoms: _85  and  _87
REMARK   37  A    between atoms: _87  and  _88
REMARK   38  A    between atoms: _87  and  _90
REMARK   39  A    between atoms: _90  and  _91
REMARK   40  A    between atoms: _96  and  _98
REMARK   41  A    between atoms: _98  and  _99
REMARK   42  A    between atoms: _98  and  _101
REMARK   43  A    between atoms: _101  and  _102
REMARK   44  A    between atoms: _108  and  _110
REMARK   45  A    between atoms: _110  and  _111
REMARK   46  A    between atoms: _110  and  _113
REMARK   47  A    between atoms: _113  and  _114
REMARK   48  A    between atoms: _117  and  _119
REMARK   49  A    between atoms: _119  and  _120
REMARK   50  A    between atoms: _119  and  _122
REMARK   51  A    between atoms: _122  and  _123
REMARK   52  A    between atoms: _123  and  _124
REMARK   53  A    between atoms: _124  and  _126
REMARK   54  A    between atoms: _126  and  CA_369
REMARK   55  A    between atoms: _127  and  _129
REMARK   56  A    between atoms: _129  and  _130
REMARK   57  A    between atoms: _129  and  _132
REMARK   58  A    between atoms: _132  and  _133
REMARK   59  A    between atoms: _143  and  _145
REMARK   60  A    between atoms: _145  and  _146
REMARK   61  A    between atoms: _145  and  _148
REMARK   62  A    between atoms: _148  and  _149
REMARK   63  A    between atoms: _152  and  _154
REMARK   64  A    between atoms: _154  and  _155
REMARK   65  A    between atoms: _154  and  _157
REMARK   66  A    between atoms: _157  and  _158
REMARK   67  A    between atoms: _163  and  _165
REMARK   68  A    between atoms: _165  and  _166
REMARK   69  A    between atoms: _165  and  _168
REMARK   70  A    between atoms: _168  and  _169
REMARK   71  A    between atoms: _172  and  _174
REMARK   72  A    between atoms: _174  and  _175
REMARK   73  A    between atoms: _174  and  _177
REMARK   74  A    between atoms: _177  and  _178
REMARK   75  A    between atoms: _184  and  _186
REMARK   76  A    between atoms: _186  and  _187
REMARK   77  A    between atoms: _186  and  _189
REMARK   78  A    between atoms: _189  and  _190
REMARK   79  A    between atoms: _193  and  _195
REMARK   80  A    between atoms: _195  and  _196
REMARK   81  A    between atoms: _195  and  _198
REMARK   82  A    between atoms: _198  and  _199
REMARK   83  A    between atoms: _202  and  _204
REMARK   84  A    between atoms: _204  and  _205
REMARK   85  A    between atoms: _208  and  _210
REMARK   86  A    between atoms: _210  and  _211
REMARK   87  A    between atoms: _210  and  _213
REMARK   88  A    between atoms: _216  and  _218
REMARK   89  A    between atoms: _218  and  _219
REMARK   90  A    between atoms: _218  and  _221
REMARK   91  A    between atoms: _221  and  _222
REMARK   92  A    between atoms: _226  and  ZN_368
REMARK   93  A    between atoms: _227  and  _229
REMARK   94  A    between atoms: _229  and  _230
REMARK   95  A    between atoms: _229  and  _232
REMARK   96  A    between atoms: _232  and  _233
REMARK   97  A    between atoms: _233  and  _234
REMARK   98  A    between atoms: _237  and  _239
REMARK   99  A    between atoms: _239  and  _240
REMARK  100  A    between atoms: _239  and  _242
REMARK  101  A    between atoms: _242  and  _243
REMARK  102  A    between atoms: _246  and  _248
REMARK  103  A    between atoms: _248  and  _249
REMARK  104  A    between atoms: _248  and  _251
REMARK  105  A    between atoms: _251  and  _252
REMARK  106  A    between atoms: _256  and  ZN_368
REMARK  107  A    between atoms: _257  and  _259
REMARK  108  A    between atoms: _259  and  _260
REMARK  109  A    between atoms: _259  and  _262
REMARK  110  A    between atoms: _262  and  _263
REMARK  111  A    between atoms: _265  and  _267
REMARK  112  A    between atoms: _267  and  _268
REMARK  113  A    between atoms: _267  and  _270
REMARK  114  A    between atoms: _270  and  _271
REMARK  115  A    between atoms: _274  and  _276
REMARK  116  A    between atoms: _276  and  _277
REMARK  117  A    between atoms: _279  and  _281
REMARK  118  A    between atoms: _281  and  _282
REMARK  119  A    between atoms: _281  and  _284
REMARK  120  A    between atoms: _284  and  _285
REMARK  121  A    between atoms: _289  and  ZN_368
REMARK  122  A    between atoms: _290  and  _292
REMARK  123  A    between atoms: _292  and  _293
REMARK  124  A    between atoms: _296  and  _298
REMARK  125  A    between atoms: _298  and  _299
REMARK  126  A    between atoms: _298  and  _301
REMARK  127  A    between atoms: _304  and  _306
REMARK  128  A    between atoms: _306  and  _307
REMARK  129  A    between atoms: _306  and  _309
REMARK  130  A    between atoms: _309  and  _310
REMARK  131  A    between atoms: _310  and  _311
REMARK  132  A    between atoms: _313  and  _315
REMARK  133  A    between atoms: _315  and  _316
REMARK  134  A    between atoms: _315  and  _318
REMARK  135  A    between atoms: _318  and  _319
REMARK  136  A    between atoms: _326  and  _327
REMARK  137  A    between atoms: _332  and  _334
REMARK  138  A    between atoms: _334  and  _335
REMARK  139  A    between atoms: _334  and  _337
REMARK  140  A    between atoms: _337  and  _338
REMARK  141  A    between atoms: _341  and  _343
REMARK  142  A    between atoms: _343  and  _344
REMARK  143  A    between atoms: _343  and  _346
REMARK  144  A    between atoms: _346  and  _347
REMARK  145  A    between atoms: _352  and  _353
REMARK  146  A    between atoms: _355  and  _357
REMARK  147  A    between atoms: _357  and  _358
REMARK  148  A    between atoms: _357  and  _360
REMARK  149  A    between atoms: _360  and  _361
REMARK  150  A    between atoms: _361  and  _362
REMARK  151  A    between atoms: _362  and  _363
REMARK  152  A    between atoms: _363  and  _364
REMARK                            x       y       z     vdW  Elec       q    Type
REMARK                         _______ _______ _______ _____ _____    ______ ____
ROOT
ATOM      1  O   HOH     1      -6.617  -8.972 -15.446  0.00  0.00    +0.000 OA
ENDROOT
TORSDOF 0
REMARK  Name = ../refined-set-2016/3f18/3f18_pocket.pdb
REMARK  152 active torsions:
REMARK  status: ('A' for Active; 'I' for Inactive)
REMARK    1  A    between atoms: _1  and  _3
REMARK    2  A    between atoms: _3  and  _4
REMARK    3  A    between atoms: _3  and  _6
REMARK    4  A    between atoms: _6  and  _7
REMARK    5  A    between atoms: _13  and  _15
REMARK    6  A    between atoms: _15  and  _16
REMARK    7  A    between atoms: _15  and  _18
REMARK    8  A    between atoms: _18  and  _19
REMARK    9  A    between atoms: _22  and  _24
REMARK   10  A    between atoms: _24  and  _25
REMARK   11  A    between atoms: _27  and  _29
REMARK   12  A    between atoms: _29  and  _30
REMARK   13  A    between atoms: _32  and  _34
REMARK   14  A    between atoms: _34  and  _35
REMARK   15  A    between atoms: _34  and  _37
REMARK   16  A    between atoms: _35  and  _36
REMARK   17  A    between atoms: _35  and  _41
REMARK   18  A    between atoms: _36  and  CA_369
REMARK   19  A    between atoms: _37  and  _38
REMARK   20  A    between atoms: _41  and  _43
REMARK   21  A    between atoms: _43  and  _44
REMARK   22  A    between atoms: _43  and  _46
REMARK   23  A    between atoms: _46  and  _47
REMARK   24  A    between atoms: _50  and  _52
REMARK   25  A    between atoms: _52  and  _53
REMARK   26  A    between atoms: _56  and  _58
REMARK   27  A    between atoms: _58  and  _59
REMARK   28  A    between atoms: _58  and  _61
REMARK   29  A    between atoms: _61  and  _62
REMARK   30  A    between atoms: _67  and  _69
REMARK   31  A    between atoms: _69  and  _70
REMARK   32  A    between atoms: _73  and  _75
REMARK   33  A    between atoms: _75  and  _76
REMARK   34  A    between atoms: _75  and  _78
REMARK   35  A    between atoms: _78  and  _79
REMARK   36  A    between atoms: _85  and  _87
REMARK   37  A    between atoms: _87  and  _88
REMARK   38  A    between atoms: _87  and  _90
REMARK   39  A    between atoms: _90  and  _91
REMARK   40  A    between atoms: _96  and  _98
REMARK   41  A    between atoms: _98  and  _99
REMARK   42  A    between atoms: _98  and  _101
REMARK   43  A    between atoms: _101  and  _102
REMARK   44  A    between atoms: _108  and  _110
REMARK   45  A    between atoms: _110  and  _111
REMARK   46  A    between atoms: _110  and  _113
REMARK   47  A    between atoms: _113  and  _114
REMARK   48  A    between atoms: _117  and  _119
REMARK   49  A    between atoms: _119  and  _120
REMARK   50  A    between atoms: _119  and  _122
REMARK   51  A    between atoms: _122  and  _123
REMARK   52  A    between atoms: _123  and  _124
REMARK   53  A    between atoms: _124  and  _126
REMARK   54  A    between atoms: _126  and  CA_369
REMARK   55  A    between atoms: _127  and  _129
REMARK   56  A    between atoms: _129  and  _130
REMARK   57  A    between atoms: _129  and  _132
REMARK   58  A    between atoms: _132  and  _133
REMARK   59  A    between atoms: _143  and  _145
REMARK   60  A    between atoms: _145  and  _146
REMARK   61  A    between atoms: _145  and  _148
REMARK   62  A    between atoms: _148  and  _149
REMARK   63  A    between atoms: _152  and  _154
REMARK   64  A    between atoms: _154  and  _155
REMARK   65  A    between atoms: _154  and  _157
REMARK   66  A    between atoms: _157  and  _158
REMARK   67  A    between atoms: _163  and  _165
REMARK   68  A    between atoms: _165  and  _166
REMARK   69  A    between atoms: _165  and  _168
REMARK   70  A    between atoms: _168  and  _169
REMARK   71  A    between atoms: _172  and  _174
REMARK   72  A    between atoms: _174  and  _175
REMARK   73  A    between atoms: _174  and  _177
REMARK   74  A    between atoms: _177  and  _178
REMARK   75  A    between atoms: _184  and  _186
REMARK   76  A    between atoms: _186  and  _187
REMARK   77  A    between atoms: _186  and  _189
REMARK   78  A    between atoms: _189  and  _190
REMARK   79  A    between atoms: _193  and  _195
REMARK   80  A    between atoms: _195  and  _196
REMARK   81  A    between atoms: _195  and  _198
REMARK   82  A    between atoms: _198  and  _199
REMARK   83  A    between atoms: _202  and  _204
REMARK   84  A    between atoms: _204  and  _205
REMARK   85  A    between atoms: _208  and  _210
REMARK   86  A    between atoms: _210  and  _211
REMARK   87  A    between atoms: _210  and  _213
REMARK   88  A    between atoms: _216  and  _218
REMARK   89  A    between atoms: _218  and  _219
REMARK   90  A    between atoms: _218  and  _221
REMARK   91  A    between atoms: _221  and  _222
REMARK   92  A    between atoms: _226  and  ZN_368
REMARK   93  A    between atoms: _227  and  _229
REMARK   94  A    between atoms: _229  and  _230
REMARK   95  A    between atoms: _229  and  _232
REMARK   96  A    between atoms: _232  and  _233
REMARK   97  A    between atoms: _233  and  _234
REMARK   98  A    between atoms: _237  and  _239
REMARK   99  A    between atoms: _239  and  _240
REMARK  100  A    between atoms: _239  and  _242
REMARK  101  A    between atoms: _242  and  _243
REMARK  102  A    between atoms: _246  and  _248
REMARK  103  A    between atoms: _248  and  _249
REMARK  104  A    between atoms: _248  and  _251
REMARK  105  A    between atoms: _251  and  _252
REMARK  106  A    between atoms: _256  and  ZN_368
REMARK  107  A    between atoms: _257  and  _259
REMARK  108  A    between atoms: _259  and  _260
REMARK  109  A    between atoms: _259  and  _262
REMARK  110  A    between atoms: _262  and  _263
REMARK  111  A    between atoms: _265  and  _267
REMARK  112  A    between atoms: _267  and  _268
REMARK  113  A    between atoms: _267  and  _270
REMARK  114  A    between atoms: _270  and  _271
REMARK  115  A    between atoms: _274  and  _276
REMARK  116  A    between atoms: _276  and  _277
REMARK  117  A    between atoms: _279  and  _281
REMARK  118  A    between atoms: _281  and  _282
REMARK  119  A    between atoms: _281  and  _284
REMARK  120  A    between atoms: _284  and  _285
REMARK  121  A    between atoms: _289  and  ZN_368
REMARK  122  A    between atoms: _290  and  _292
REMARK  123  A    between atoms: _292  and  _293
REMARK  124  A    between atoms: _296  and  _298
REMARK  125  A    between atoms: _298  and  _299
REMARK  126  A    between atoms: _298  and  _301
REMARK  127  A    between atoms: _304  and  _306
REMARK  128  A    between atoms: _306  and  _307
REMARK  129  A    between atoms: _306  and  _309
REMARK  130  A    between atoms: _309  and  _310
REMARK  131  A    between atoms: _310  and  _311
REMARK  132  A    between atoms: _313  and  _315
REMARK  133  A    between atoms: _315  and  _316
REMARK  134  A    between atoms: _315  and  _318
REMARK  135  A    between atoms: _318  and  _319
REMARK  136  A    between atoms: _326  and  _327
REMARK  137  A    between atoms: _332  and  _334
REMARK  138  A    between atoms: _334  and  _335
REMARK  139  A    between atoms: _334  and  _337
REMARK  140  A    between atoms: _337  and  _338
REMARK  141  A    between atoms: _341  and  _343
REMARK  142  A    between atoms: _343  and  _344
REMARK  143  A    between atoms: _343  and  _346
REMARK  144  A    between atoms: _346  and  _347
REMARK  145  A    between atoms: _352  and  _353
REMARK  146  A    between atoms: _355  and  _357
REMARK  147  A    between atoms: _357  and  _358
REMARK  148  A    between atoms: _357  and  _360
REMARK  149  A    between atoms: _360  and  _361
REMARK  150  A    between atoms: _361  and  _362
REMARK  151  A    between atoms: _362  and  _363
REMARK  152  A    between atoms: _363  and  _364
REMARK                            x       y       z     vdW  Elec       q    Type
REMARK                         _______ _______ _______ _____ _____    ______ ____
ROOT
ATOM      1  O   HOH     1      -9.511  -8.643 -24.062  0.00  0.00    +0.000 OA
ENDROOT
TORSDOF 0
REMARK  Name = ../refined-set-2016/3f18/3f18_pocket.pdb
REMARK  152 active torsions:
REMARK  status: ('A' for Active; 'I' for Inactive)
REMARK    1  A    between atoms: _1  and  _3
REMARK    2  A    between atoms: _3  and  _4
REMARK    3  A    between atoms: _3  and  _6
REMARK    4  A    between atoms: _6  and  _7
REMARK    5  A    between atoms: _13  and  _15
REMARK    6  A    between atoms: _15  and  _16
REMARK    7  A    between atoms: _15  and  _18
REMARK    8  A    between atoms: _18  and  _19
REMARK    9  A    between atoms: _22  and  _24
REMARK   10  A    between atoms: _24  and  _25
REMARK   11  A    between atoms: _27  and  _29
REMARK   12  A    between atoms: _29  and  _30
REMARK   13  A    between atoms: _32  and  _34
REMARK   14  A    between atoms: _34  and  _35
REMARK   15  A    between atoms: _34  and  _37
REMARK   16  A    between atoms: _35  and  _36
REMARK   17  A    between atoms: _35  and  _41
REMARK   18  A    between atoms: _36  and  CA_369
REMARK   19  A    between atoms: _37  and  _38
REMARK   20  A    between atoms: _41  and  _43
REMARK   21  A    between atoms: _43  and  _44
REMARK   22  A    between atoms: _43  and  _46
REMARK   23  A    between atoms: _46  and  _47
REMARK   24  A    between atoms: _50  and  _52
REMARK   25  A    between atoms: _52  and  _53
REMARK   26  A    between atoms: _56  and  _58
REMARK   27  A    between atoms: _58  and  _59
REMARK   28  A    between atoms: _58  and  _61
REMARK   29  A    between atoms: _61  and  _62
REMARK   30  A    between atoms: _67  and  _69
REMARK   31  A    between atoms: _69  and  _70
REMARK   32  A    between atoms: _73  and  _75
REMARK   33  A    between atoms: _75  and  _76
REMARK   34  A    between atoms: _75  and  _78
REMARK   35  A    between atoms: _78  and  _79
REMARK   36  A    between atoms: _85  and  _87
REMARK   37  A    between atoms: _87  and  _88
REMARK   38  A    between atoms: _87  and  _90
REMARK   39  A    between atoms: _90  and  _91
REMARK   40  A    between atoms: _96  and  _98
REMARK   41  A    between atoms: _98  and  _99
REMARK   42  A    between atoms: _98  and  _101
REMARK   43  A    between atoms: _101  and  _102
REMARK   44  A    between atoms: _108  and  _110
REMARK   45  A    between atoms: _110  and  _111
REMARK   46  A    between atoms: _110  and  _113
REMARK   47  A    between atoms: _113  and  _114
REMARK   48  A    between atoms: _117  and  _119
REMARK   49  A    between atoms: _119  and  _120
REMARK   50  A    between atoms: _119  and  _122
REMARK   51  A    between atoms: _122  and  _123
REMARK   52  A    between atoms: _123  and  _124
REMARK   53  A    between atoms: _124  and  _126
REMARK   54  A    between atoms: _126  and  CA_369
REMARK   55  A    between atoms: _127  and  _129
REMARK   56  A    between atoms: _129  and  _130
REMARK   57  A    between atoms: _129  and  _132
REMARK   58  A    between atoms: _132  and  _133
REMARK   59  A    between atoms: _143  and  _145
REMARK   60  A    between atoms: _145  and  _146
REMARK   61  A    between atoms: _145  and  _148
REMARK   62  A    between atoms: _148  and  _149
REMARK   63  A    between atoms: _152  and  _154
REMARK   64  A    between atoms: _154  and  _155
REMARK   65  A    between atoms: _154  and  _157
REMARK   66  A    between atoms: _157  and  _158
REMARK   67  A    between atoms: _163  and  _165
REMARK   68  A    between atoms: _165  and  _166
REMARK   69  A    between atoms: _165  and  _168
REMARK   70  A    between atoms: _168  and  _169
REMARK   71  A    between atoms: _172  and  _174
REMARK   72  A    between atoms: _174  and  _175
REMARK   73  A    between atoms: _174  and  _177
REMARK   74  A    between atoms: _177  and  _178
REMARK   75  A    between atoms: _184  and  _186
REMARK   76  A    between atoms: _186  and  _187
REMARK   77  A    between atoms: _186  and  _189
REMARK   78  A    between atoms: _189  and  _190
REMARK   79  A    between atoms: _193  and  _195
REMARK   80  A    between atoms: _195  and  _196
REMARK   81  A    between atoms: _195  and  _198
REMARK   82  A    between atoms: _198  and  _199
REMARK   83  A    between atoms: _202  and  _204
REMARK   84  A    between atoms: _204  and  _205
REMARK   85  A    between atoms: _208  and  _210
REMARK   86  A    between atoms: _210  and  _211
REMARK   87  A    between atoms: _210  and  _213
REMARK   88  A    between atoms: _216  and  _218
REMARK   89  A    between atoms: _218  and  _219
REMARK   90  A    between atoms: _218  and  _221
REMARK   91  A    between atoms: _221  and  _222
REMARK   92  A    between atoms: _226  and  ZN_368
REMARK   93  A    between atoms: _227  and  _229
REMARK   94  A    between atoms: _229  and  _230
REMARK   95  A    between atoms: _229  and  _232
REMARK   96  A    between atoms: _232  and  _233
REMARK   97  A    between atoms: _233  and  _234
REMARK   98  A    between atoms: _237  and  _239
REMARK   99  A    between atoms: _239  and  _240
REMARK  100  A    between atoms: _239  and  _242
REMARK  101  A    between atoms: _242  and  _243
REMARK  102  A    between atoms: _246  and  _248
REMARK  103  A    between atoms: _248  and  _249
REMARK  104  A    between atoms: _248  and  _251
REMARK  105  A    between atoms: _251  and  _252
REMARK  106  A    between atoms: _256  and  ZN_368
REMARK  107  A    between atoms: _257  and  _259
REMARK  108  A    between atoms: _259  and  _260
REMARK  109  A    between atoms: _259  and  _262
REMARK  110  A    between atoms: _262  and  _263
REMARK  111  A    between atoms: _265  and  _267
REMARK  112  A    between atoms: _267  and  _268
REMARK  113  A    between atoms: _267  and  _270
REMARK  114  A    between atoms: _270  and  _271
REMARK  115  A    between atoms: _274  and  _276
REMARK  116  A    between atoms: _276  and  _277
REMARK  117  A    between atoms: _279  and  _281
REMARK  118  A    between atoms: _281  and  _282
REMARK  119  A    between atoms: _281  and  _284
REMARK  120  A    between atoms: _284  and  _285
REMARK  121  A    between atoms: _289  and  ZN_368
REMARK  122  A    between atoms: _290  and  _292
REMARK  123  A    between atoms: _292  and  _293
REMARK  124  A    between atoms: _296  and  _298
REMARK  125  A    between atoms: _298  and  _299
REMARK  126  A    between atoms: _298  and  _301
REMARK  127  A    between atoms: _304  and  _306
REMARK  128  A    between atoms: _306  and  _307
REMARK  129  A    between atoms: _306  and  _309
REMARK  130  A    between atoms: _309  and  _310
REMARK  131  A    between atoms: _310  and  _311
REMARK  132  A    between atoms: _313  and  _315
REMARK  133  A    between atoms: _315  and  _316
REMARK  134  A    between atoms: _315  and  _318
REMARK  135  A    between atoms: _318  and  _319
REMARK  136  A    between atoms: _326  and  _327
REMARK  137  A    between atoms: _332  and  _334
REMARK  138  A    between atoms: _334  and  _335
REMARK  139  A    between atoms: _334  and  _337
REMARK  140  A    between atoms: _337  and  _338
REMARK  141  A    between atoms: _341  and  _343
REMARK  142  A    between atoms: _343  and  _344
REMARK  143  A    between atoms: _343  and  _346
REMARK  144  A    between atoms: _346  and  _347
REMARK  145  A    between atoms: _352  and  _353
REMARK  146  A    between atoms: _355  and  _357
REMARK  147  A    between atoms: _357  and  _358
REMARK  148  A    between atoms: _357  and  _360
REMARK  149  A    between atoms: _360  and  _361
REMARK  150  A    between atoms: _361  and  _362
REMARK  151  A    between atoms: _362  and  _363
REMARK  152  A    between atoms: _363  and  _364
REMARK                            x       y       z     vdW  Elec       q    Type
REMARK                         _______ _______ _______ _____ _____    ______ ____
ROOT
ATOM      1  O   HOH     1      -2.288  -9.095 -17.321  0.00  0.00    +0.000 OA
ENDROOT
TORSDOF 0
REMARK  Name = ../refined-set-2016/3f18/3f18_pocket.pdb
REMARK  152 active torsions:
REMARK  status: ('A' for Active; 'I' for Inactive)
REMARK    1  A    between atoms: _1  and  _3
REMARK    2  A    between atoms: _3  and  _4
REMARK    3  A    between atoms: _3  and  _6
REMARK    4  A    between atoms: _6  and  _7
REMARK    5  A    between atoms: _13  and  _15
REMARK    6  A    between atoms: _15  and  _16
REMARK    7  A    between atoms: _15  and  _18
REMARK    8  A    between atoms: _18  and  _19
REMARK    9  A    between atoms: _22  and  _24
REMARK   10  A    between atoms: _24  and  _25
REMARK   11  A    between atoms: _27  and  _29
REMARK   12  A    between atoms: _29  and  _30
REMARK   13  A    between atoms: _32  and  _34
REMARK   14  A    between atoms: _34  and  _35
REMARK   15  A    between atoms: _34  and  _37
REMARK   16  A    between atoms: _35  and  _36
REMARK   17  A    between atoms: _35  and  _41
REMARK   18  A    between atoms: _36  and  CA_369
REMARK   19  A    between atoms: _37  and  _38
REMARK   20  A    between atoms: _41  and  _43
REMARK   21  A    between atoms: _43  and  _44
REMARK   22  A    between atoms: _43  and  _46
REMARK   23  A    between atoms: _46  and  _47
REMARK   24  A    between atoms: _50  and  _52
REMARK   25  A    between atoms: _52  and  _53
REMARK   26  A    between atoms: _56  and  _58
REMARK   27  A    between atoms: _58  and  _59
REMARK   28  A    between atoms: _58  and  _61
REMARK   29  A    between atoms: _61  and  _62
REMARK   30  A    between atoms: _67  and  _69
REMARK   31  A    between atoms: _69  and  _70
REMARK   32  A    between atoms: _73  and  _75
REMARK   33  A    between atoms: _75  and  _76
REMARK   34  A    between atoms: _75  and  _78
REMARK   35  A    between atoms: _78  and  _79
REMARK   36  A    between atoms: _85  and  _87
REMARK   37  A    between atoms: _87  and  _88
REMARK   38  A    between atoms: _87  and  _90
REMARK   39  A    between atoms: _90  and  _91
REMARK   40  A    between atoms: _96  and  _98
REMARK   41  A    between atoms: _98  and  _99
REMARK   42  A    between atoms: _98  and  _101
REMARK   43  A    between atoms: _101  and  _102
REMARK   44  A    between atoms: _108  and  _110
REMARK   45  A    between atoms: _110  and  _111
REMARK   46  A    between atoms: _110  and  _113
REMARK   47  A    between atoms: _113  and  _114
REMARK   48  A    between atoms: _117  and  _119
REMARK   49  A    between atoms: _119  and  _120
REMARK   50  A    between atoms: _119  and  _122
REMARK   51  A    between atoms: _122  and  _123
REMARK   52  A    between atoms: _123  and  _124
REMARK   53  A    between atoms: _124  and  _126
REMARK   54  A    between atoms: _126  and  CA_369
REMARK   55  A    between atoms: _127  and  _129
REMARK   56  A    between atoms: _129  and  _130
REMARK   57  A    between atoms: _129  and  _132
REMARK   58  A    between atoms: _132  and  _133
REMARK   59  A    between atoms: _143  and  _145
REMARK   60  A    between atoms: _145  and  _146
REMARK   61  A    between atoms: _145  and  _148
REMARK   62  A    between atoms: _148  and  _149
REMARK   63  A    between atoms: _152  and  _154
REMARK   64  A    between atoms: _154  and  _155
REMARK   65  A    between atoms: _154  and  _157
REMARK   66  A    between atoms: _157  and  _158
REMARK   67  A    between atoms: _163  and  _165
REMARK   68  A    between atoms: _165  and  _166
REMARK   69  A    between atoms: _165  and  _168
REMARK   70  A    between atoms: _168  and  _169
REMARK   71  A    between atoms: _172  and  _174
REMARK   72  A    between atoms: _174  and  _175
REMARK   73  A    between atoms: _174  and  _177
REMARK   74  A    between atoms: _177  and  _178
REMARK   75  A    between atoms: _184  and  _186
REMARK   76  A    between atoms: _186  and  _187
REMARK   77  A    between atoms: _186  and  _189
REMARK   78  A    between atoms: _189  and  _190
REMARK   79  A    between atoms: _193  and  _195
REMARK   80  A    between atoms: _195  and  _196
REMARK   81  A    between atoms: _195  and  _198
REMARK   82  A    between atoms: _198  and  _199
REMARK   83  A    between atoms: _202  and  _204
REMARK   84  A    between atoms: _204  and  _205
REMARK   85  A    between atoms: _208  and  _210
REMARK   86  A    between atoms: _210  and  _211
REMARK   87  A    between atoms: _210  and  _213
REMARK   88  A    between atoms: _216  and  _218
REMARK   89  A    between atoms: _218  and  _219
REMARK   90  A    between atoms: _218  and  _221
REMARK   91  A    between atoms: _221  and  _222
REMARK   92  A    between atoms: _226  and  ZN_368
REMARK   93  A    between atoms: _227  and  _229
REMARK   94  A    between atoms: _229  and  _230
REMARK   95  A    between atoms: _229  and  _232
REMARK   96  A    between atoms: _232  and  _233
REMARK   97  A    between atoms: _233  and  _234
REMARK   98  A    between atoms: _237  and  _239
REMARK   99  A    between atoms: _239  and  _240
REMARK  100  A    between atoms: _239  and  _242
REMARK  101  A    between atoms: _242  and  _243
REMARK  102  A    between atoms: _246  and  _248
REMARK  103  A    between atoms: _248  and  _249
REMARK  104  A    between atoms: _248  and  _251
REMARK  105  A    between atoms: _251  and  _252
REMARK  106  A    between atoms: _256  and  ZN_368
REMARK  107  A    between atoms: _257  and  _259
REMARK  108  A    between atoms: _259  and  _260
REMARK  109  A    between atoms: _259  and  _262
REMARK  110  A    between atoms: _262  and  _263
REMARK  111  A    between atoms: _265  and  _267
REMARK  112  A    between atoms: _267  and  _268
REMARK  113  A    between atoms: _267  and  _270
REMARK  114  A    between atoms: _270  and  _271
REMARK  115  A    between atoms: _274  and  _276
REMARK  116  A    between atoms: _276  and  _277
REMARK  117  A    between atoms: _279  and  _281
REMARK  118  A    between atoms: _281  and  _282
REMARK  119  A    between atoms: _281  and  _284
REMARK  120  A    between atoms: _284  and  _285
REMARK  121  A    between atoms: _289  and  ZN_368
REMARK  122  A    between atoms: _290  and  _292
REMARK  123  A    between atoms: _292  and  _293
REMARK  124  A    between atoms: _296  and  _298
REMARK  125  A    between atoms: _298  and  _299
REMARK  126  A    between atoms: _298  and  _301
REMARK  127  A    between atoms: _304  and  _306
REMARK  128  A    between atoms: _306  and  _307
REMARK  129  A    between atoms: _306  and  _309
REMARK  130  A    between atoms: _309  and  _310
REMARK  131  A    between atoms: _310  and  _311
REMARK  132  A    between atoms: _313  and  _315
REMARK  133  A    between atoms: _315  and  _316
REMARK  134  A    between atoms: _315  and  _318
REMARK  135  A    between atoms: _318  and  _319
REMARK  136  A    between atoms: _326  and  _327
REMARK  137  A    between atoms: _332  and  _334
REMARK  138  A    between atoms: _334  and  _335
REMARK  139  A    between atoms: _334  and  _337
REMARK  140  A    between atoms: _337  and  _338
REMARK  141  A    between atoms: _341  and  _343
REMARK  142  A    between atoms: _343  and  _344
REMARK  143  A    between atoms: _343  and  _346
REMARK  144  A    between atoms: _346  and  _347
REMARK  145  A    between atoms: _352  and  _353
REMARK  146  A    between atoms: _355  and  _357
REMARK  147  A    between atoms: _357  and  _358
REMARK  148  A    between atoms: _357  and  _360
REMARK  149  A    between atoms: _360  and  _361
REMARK  150  A    between atoms: _361  and  _362
REMARK  151  A    between atoms: _362  and  _363
REMARK  152  A    between atoms: _363  and  _364
REMARK                            x       y       z     vdW  Elec       q    Type
REMARK                         _______ _______ _______ _____ _____    ______ ____
ROOT
ATOM      1  O   HOH     1      -5.527  -7.188 -17.375  0.00  0.00    +0.000 OA
ENDROOT
TORSDOF 0
REMARK  Name = ../refined-set-2016/3f18/3f18_pocket.pdb
REMARK  152 active torsions:
REMARK  status: ('A' for Active; 'I' for Inactive)
REMARK    1  A    between atoms: _1  and  _3
REMARK    2  A    between atoms: _3  and  _4
REMARK    3  A    between atoms: _3  and  _6
REMARK    4  A    between atoms: _6  and  _7
REMARK    5  A    between atoms: _13  and  _15
REMARK    6  A    between atoms: _15  and  _16
REMARK    7  A    between atoms: _15  and  _18
REMARK    8  A    between atoms: _18  and  _19
REMARK    9  A    between atoms: _22  and  _24
REMARK   10  A    between atoms: _24  and  _25
REMARK   11  A    between atoms: _27  and  _29
REMARK   12  A    between atoms: _29  and  _30
REMARK   13  A    between atoms: _32  and  _34
REMARK   14  A    between atoms: _34  and  _35
REMARK   15  A    between atoms: _34  and  _37
REMARK   16  A    between atoms: _35  and  _36
REMARK   17  A    between atoms: _35  and  _41
REMARK   18  A    between atoms: _36  and  CA_369
REMARK   19  A    between atoms: _37  and  _38
REMARK   20  A    between atoms: _41  and  _43
REMARK   21  A    between atoms: _43  and  _44
REMARK   22  A    between atoms: _43  and  _46
REMARK   23  A    between atoms: _46  and  _47
REMARK   24  A    between atoms: _50  and  _52
REMARK   25  A    between atoms: _52  and  _53
REMARK   26  A    between atoms: _56  and  _58
REMARK   27  A    between atoms: _58  and  _59
REMARK   28  A    between atoms: _58  and  _61
REMARK   29  A    between atoms: _61  and  _62
REMARK   30  A    between atoms: _67  and  _69
REMARK   31  A    between atoms: _69  and  _70
REMARK   32  A    between atoms: _73  and  _75
REMARK   33  A    between atoms: _75  and  _76
REMARK   34  A    between atoms: _75  and  _78
REMARK   35  A    between atoms: _78  and  _79
REMARK   36  A    between atoms: _85  and  _87
REMARK   37  A    between atoms: _87  and  _88
REMARK   38  A    between atoms: _87  and  _90
REMARK   39  A    between atoms: _90  and  _91
REMARK   40  A    between atoms: _96  and  _98
REMARK   41  A    between atoms: _98  and  _99
REMARK   42  A    between atoms: _98  and  _101
REMARK   43  A    between atoms: _101  and  _102
REMARK   44  A    between atoms: _108  and  _110
REMARK   45  A    between atoms: _110  and  _111
REMARK   46  A    between atoms: _110  and  _113
REMARK   47  A    between atoms: _113  and  _114
REMARK   48  A    between atoms: _117  and  _119
REMARK   49  A    between atoms: _119  and  _120
REMARK   50  A    between atoms: _119  and  _122
REMARK   51  A    between atoms: _122  and  _123
REMARK   52  A    between atoms: _123  and  _124
REMARK   53  A    between atoms: _124  and  _126
REMARK   54  A    between atoms: _126  and  CA_369
REMARK   55  A    between atoms: _127  and  _129
REMARK   56  A    between atoms: _129  and  _130
REMARK   57  A    between atoms: _129  and  _132
REMARK   58  A    between atoms: _132  and  _133
REMARK   59  A    between atoms: _143  and  _145
REMARK   60  A    between atoms: _145  and  _146
REMARK   61  A    between atoms: _145  and  _148
REMARK   62  A    between atoms: _148  and  _149
REMARK   63  A    between atoms: _152  and  _154
REMARK   64  A    between atoms: _154  and  _155
REMARK   65  A    between atoms: _154  and  _157
REMARK   66  A    between atoms: _157  and  _158
REMARK   67  A    between atoms: _163  and  _165
REMARK   68  A    between atoms: _165  and  _166
REMARK   69  A    between atoms: _165  and  _168
REMARK   70  A    between atoms: _168  and  _169
REMARK   71  A    between atoms: _172  and  _174
REMARK   72  A    between atoms: _174  and  _175
REMARK   73  A    between atoms: _174  and  _177
REMARK   74  A    between atoms: _177  and  _178
REMARK   75  A    between atoms: _184  and  _186
REMARK   76  A    between atoms: _186  and  _187
REMARK   77  A    between atoms: _186  and  _189
REMARK   78  A    between atoms: _189  and  _190
REMARK   79  A    between atoms: _193  and  _195
REMARK   80  A    between atoms: _195  and  _196
REMARK   81  A    between atoms: _195  and  _198
REMARK   82  A    between atoms: _198  and  _199
REMARK   83  A    between atoms: _202  and  _204
REMARK   84  A    between atoms: _204  and  _205
REMARK   85  A    between atoms: _208  and  _210
REMARK   86  A    between atoms: _210  and  _211
REMARK   87  A    between atoms: _210  and  _213
REMARK   88  A    between atoms: _216  and  _218
REMARK   89  A    between atoms: _218  and  _219
REMARK   90  A    between atoms: _218  and  _221
REMARK   91  A    between atoms: _221  and  _222
REMARK   92  A    between atoms: _226  and  ZN_368
REMARK   93  A    between atoms: _227  and  _229
REMARK   94  A    between atoms: _229  and  _230
REMARK   95  A    between atoms: _229  and  _232
REMARK   96  A    between atoms: _232  and  _233
REMARK   97  A    between atoms: _233  and  _234
REMARK   98  A    between atoms: _237  and  _239
REMARK   99  A    between atoms: _239  and  _240
REMARK  100  A    between atoms: _239  and  _242
REMARK  101  A    between atoms: _242  and  _243
REMARK  102  A    between atoms: _246  and  _248
REMARK  103  A    between atoms: _248  and  _249
REMARK  104  A    between atoms: _248  and  _251
REMARK  105  A    between atoms: _251  and  _252
REMARK  106  A    between atoms: _256  and  ZN_368
REMARK  107  A    between atoms: _257  and  _259
REMARK  108  A    between atoms: _259  and  _260
REMARK  109  A    between atoms: _259  and  _262
REMARK  110  A    between atoms: _262  and  _263
REMARK  111  A    between atoms: _265  and  _267
REMARK  112  A    between atoms: _267  and  _268
REMARK  113  A    between atoms: _267  and  _270
REMARK  114  A    between atoms: _270  and  _271
REMARK  115  A    between atoms: _274  and  _276
REMARK  116  A    between atoms: _276  and  _277
REMARK  117  A    between atoms: _279  and  _281
REMARK  118  A    between atoms: _281  and  _282
REMARK  119  A    between atoms: _281  and  _284
REMARK  120  A    between atoms: _284  and  _285
REMARK  121  A    between atoms: _289  and  ZN_368
REMARK  122  A    between atoms: _290  and  _292
REMARK  123  A    between atoms: _292  and  _293
REMARK  124  A    between atoms: _296  and  _298
REMARK  125  A    between atoms: _298  and  _299
REMARK  126  A    between atoms: _298  and  _301
REMARK  127  A    between atoms: _304  and  _306
REMARK  128  A    between atoms: _306  and  _307
REMARK  129  A    between atoms: _306  and  _309
REMARK  130  A    between atoms: _309  and  _310
REMARK  131  A    between atoms: _310  and  _311
REMARK  132  A    between atoms: _313  and  _315
REMARK  133  A    between atoms: _315  and  _316
REMARK  134  A    between atoms: _315  and  _318
REMARK  135  A    between atoms: _318  and  _319
REMARK  136  A    between atoms: _326  and  _327
REMARK  137  A    between atoms: _332  and  _334
REMARK  138  A    between atoms: _334  and  _335
REMARK  139  A    between atoms: _334  and  _337
REMARK  140  A    between atoms: _337  and  _338
REMARK  141  A    between atoms: _341  and  _343
REMARK  142  A    between atoms: _343  and  _344
REMARK  143  A    between atoms: _343  and  _346
REMARK  144  A    between atoms: _346  and  _347
REMARK  145  A    between atoms: _352  and  _353
REMARK  146  A    between atoms: _355  and  _357
REMARK  147  A    between atoms: _357  and  _358
REMARK  148  A    between atoms: _357  and  _360
REMARK  149  A    between atoms: _360  and  _361
REMARK  150  A    between atoms: _361  and  _362
REMARK  151  A    between atoms: _362  and  _363
REMARK  152  A    between atoms: _363  and  _364
REMARK                            x       y       z     vdW  Elec       q    Type
REMARK                         _______ _______ _______ _____ _____    ______ ____
ROOT
ATOM      1  O   HOH     1     -16.562 -14.015 -21.361  0.00  0.00    +0.000 OA
ENDROOT
TORSDOF 0
REMARK  Name = ../refined-set-2016/3f18/3f18_pocket.pdb
REMARK  152 active torsions:
REMARK  status: ('A' for Active; 'I' for Inactive)
REMARK    1  A    between atoms: _1  and  _3
REMARK    2  A    between atoms: _3  and  _4
REMARK    3  A    between atoms: _3  and  _6
REMARK    4  A    between atoms: _6  and  _7
REMARK    5  A    between atoms: _13  and  _15
REMARK    6  A    between atoms: _15  and  _16
REMARK    7  A    between atoms: _15  and  _18
REMARK    8  A    between atoms: _18  and  _19
REMARK    9  A    between atoms: _22  and  _24
REMARK   10  A    between atoms: _24  and  _25
REMARK   11  A    between atoms: _27  and  _29
REMARK   12  A    between atoms: _29  and  _30
REMARK   13  A    between atoms: _32  and  _34
REMARK   14  A    between atoms: _34  and  _35
REMARK   15  A    between atoms: _34  and  _37
REMARK   16  A    between atoms: _35  and  _36
REMARK   17  A    between atoms: _35  and  _41
REMARK   18  A    between atoms: _36  and  CA_369
REMARK   19  A    between atoms: _37  and  _38
REMARK   20  A    between atoms: _41  and  _43
REMARK   21  A    between atoms: _43  and  _44
REMARK   22  A    between atoms: _43  and  _46
REMARK   23  A    between atoms: _46  and  _47
REMARK   24  A    between atoms: _50  and  _52
REMARK   25  A    between atoms: _52  and  _53
REMARK   26  A    between atoms: _56  and  _58
REMARK   27  A    between atoms: _58  and  _59
REMARK   28  A    between atoms: _58  and  _61
REMARK   29  A    between atoms: _61  and  _62
REMARK   30  A    between atoms: _67  and  _69
REMARK   31  A    between atoms: _69  and  _70
REMARK   32  A    between atoms: _73  and  _75
REMARK   33  A    between atoms: _75  and  _76
REMARK   34  A    between atoms: _75  and  _78
REMARK   35  A    between atoms: _78  and  _79
REMARK   36  A    between atoms: _85  and  _87
REMARK   37  A    between atoms: _87  and  _88
REMARK   38  A    between atoms: _87  and  _90
REMARK   39  A    between atoms: _90  and  _91
REMARK   40  A    between atoms: _96  and  _98
REMARK   41  A    between atoms: _98  and  _99
REMARK   42  A    between atoms: _98  and  _101
REMARK   43  A    between atoms: _101  and  _102
REMARK   44  A    between atoms: _108  and  _110
REMARK   45  A    between atoms: _110  and  _111
REMARK   46  A    between atoms: _110  and  _113
REMARK   47  A    between atoms: _113  and  _114
REMARK   48  A    between atoms: _117  and  _119
REMARK   49  A    between atoms: _119  and  _120
REMARK   50  A    between atoms: _119  and  _122
REMARK   51  A    between atoms: _122  and  _123
REMARK   52  A    between atoms: _123  and  _124
REMARK   53  A    between atoms: _124  and  _126
REMARK   54  A    between atoms: _126  and  CA_369
REMARK   55  A    between atoms: _127  and  _129
REMARK   56  A    between atoms: _129  and  _130
REMARK   57  A    between atoms: _129  and  _132
REMARK   58  A    between atoms: _132  and  _133
REMARK   59  A    between atoms: _143  and  _145
REMARK   60  A    between atoms: _145  and  _146
REMARK   61  A    between atoms: _145  and  _148
REMARK   62  A    between atoms: _148  and  _149
REMARK   63  A    between atoms: _152  and  _154
REMARK   64  A    between atoms: _154  and  _155
REMARK   65  A    between atoms: _154  and  _157
REMARK   66  A    between atoms: _157  and  _158
REMARK   67  A    between atoms: _163  and  _165
REMARK   68  A    between atoms: _165  and  _166
REMARK   69  A    between atoms: _165  and  _168
REMARK   70  A    between atoms: _168  and  _169
REMARK   71  A    between atoms: _172  and  _174
REMARK   72  A    between atoms: _174  and  _175
REMARK   73  A    between atoms: _174  and  _177
REMARK   74  A    between atoms: _177  and  _178
REMARK   75  A    between atoms: _184  and  _186
REMARK   76  A    between atoms: _186  and  _187
REMARK   77  A    between atoms: _186  and  _189
REMARK   78  A    between atoms: _189  and  _190
REMARK   79  A    between atoms: _193  and  _195
REMARK   80  A    between atoms: _195  and  _196
REMARK   81  A    between atoms: _195  and  _198
REMARK   82  A    between atoms: _198  and  _199
REMARK   83  A    between atoms: _202  and  _204
REMARK   84  A    between atoms: _204  and  _205
REMARK   85  A    between atoms: _208  and  _210
REMARK   86  A    between atoms: _210  and  _211
REMARK   87  A    between atoms: _210  and  _213
REMARK   88  A    between atoms: _216  and  _218
REMARK   89  A    between atoms: _218  and  _219
REMARK   90  A    between atoms: _218  and  _221
REMARK   91  A    between atoms: _221  and  _222
REMARK   92  A    between atoms: _226  and  ZN_368
REMARK   93  A    between atoms: _227  and  _229
REMARK   94  A    between atoms: _229  and  _230
REMARK   95  A    between atoms: _229  and  _232
REMARK   96  A    between atoms: _232  and  _233
REMARK   97  A    between atoms: _233  and  _234
REMARK   98  A    between atoms: _237  and  _239
REMARK   99  A    between atoms: _239  and  _240
REMARK  100  A    between atoms: _239  and  _242
REMARK  101  A    between atoms: _242  and  _243
REMARK  102  A    between atoms: _246  and  _248
REMARK  103  A    between atoms: _248  and  _249
REMARK  104  A    between atoms: _248  and  _251
REMARK  105  A    between atoms: _251  and  _252
REMARK  106  A    between atoms: _256  and  ZN_368
REMARK  107  A    between atoms: _257  and  _259
REMARK  108  A    between atoms: _259  and  _260
REMARK  109  A    between atoms: _259  and  _262
REMARK  110  A    between atoms: _262  and  _263
REMARK  111  A    between atoms: _265  and  _267
REMARK  112  A    between atoms: _267  and  _268
REMARK  113  A    between atoms: _267  and  _270
REMARK  114  A    between atoms: _270  and  _271
REMARK  115  A    between atoms: _274  and  _276
REMARK  116  A    between atoms: _276  and  _277
REMARK  117  A    between atoms: _279  and  _281
REMARK  118  A    between atoms: _281  and  _282
REMARK  119  A    between atoms: _281  and  _284
REMARK  120  A    between atoms: _284  and  _285
REMARK  121  A    between atoms: _289  and  ZN_368
REMARK  122  A    between atoms: _290  and  _292
REMARK  123  A    between atoms: _292  and  _293
REMARK  124  A    between atoms: _296  and  _298
REMARK  125  A    between atoms: _298  and  _299
REMARK  126  A    between atoms: _298  and  _301
REMARK  127  A    between atoms: _304  and  _306
REMARK  128  A    between atoms: _306  and  _307
REMARK  129  A    between atoms: _306  and  _309
REMARK  130  A    between atoms: _309  and  _310
REMARK  131  A    between atoms: _310  and  _311
REMARK  132  A    between atoms: _313  and  _315
REMARK  133  A    between atoms: _315  and  _316
REMARK  134  A    between atoms: _315  and  _318
REMARK  135  A    between atoms: _318  and  _319
REMARK  136  A    between atoms: _326  and  _327
REMARK  137  A    between atoms: _332  and  _334
REMARK  138  A    between atoms: _334  and  _335
REMARK  139  A    between atoms: _334  and  _337
REMARK  140  A    between atoms: _337  and  _338
REMARK  141  A    between atoms: _341  and  _343
REMARK  142  A    between atoms: _343  and  _344
REMARK  143  A    between atoms: _343  and  _346
REMARK  144  A    between atoms: _346  and  _347
REMARK  145  A    between atoms: _352  and  _353
REMARK  146  A    between atoms: _355  and  _357
REMARK  147  A    between atoms: _357  and  _358
REMARK  148  A    between atoms: _357  and  _360
REMARK  149  A    between atoms: _360  and  _361
REMARK  150  A    between atoms: _361  and  _362
REMARK  151  A    between atoms: _362  and  _363
REMARK  152  A    between atoms: _363  and  _364
REMARK                            x       y       z     vdW  Elec       q    Type
REMARK                         _______ _______ _______ _____ _____    ______ ____
ROOT
ATOM      1  O   HOH     1     -17.535 -10.450 -25.640  0.00  0.00    +0.000 OA
ENDROOT
TORSDOF 0
REMARK  Name = ../refined-set-2016/3f18/3f18_pocket.pdb
REMARK  152 active torsions:
REMARK  status: ('A' for Active; 'I' for Inactive)
REMARK    1  A    between atoms: _1  and  _3
REMARK    2  A    between atoms: _3  and  _4
REMARK    3  A    between atoms: _3  and  _6
REMARK    4  A    between atoms: _6  and  _7
REMARK    5  A    between atoms: _13  and  _15
REMARK    6  A    between atoms: _15  and  _16
REMARK    7  A    between atoms: _15  and  _18
REMARK    8  A    between atoms: _18  and  _19
REMARK    9  A    between atoms: _22  and  _24
REMARK   10  A    between atoms: _24  and  _25
REMARK   11  A    between atoms: _27  and  _29
REMARK   12  A    between atoms: _29  and  _30
REMARK   13  A    between atoms: _32  and  _34
REMARK   14  A    between atoms: _34  and  _35
REMARK   15  A    between atoms: _34  and  _37
REMARK   16  A    between atoms: _35  and  _36
REMARK   17  A    between atoms: _35  and  _41
REMARK   18  A    between atoms: _36  and  CA_369
REMARK   19  A    between atoms: _37  and  _38
REMARK   20  A    between atoms: _41  and  _43
REMARK   21  A    between atoms: _43  and  _44
REMARK   22  A    between atoms: _43  and  _46
REMARK   23  A    between atoms: _46  and  _47
REMARK   24  A    between atoms: _50  and  _52
REMARK   25  A    between atoms: _52  and  _53
REMARK   26  A    between atoms: _56  and  _58
REMARK   27  A    between atoms: _58  and  _59
REMARK   28  A    between atoms: _58  and  _61
REMARK   29  A    between atoms: _61  and  _62
REMARK   30  A    between atoms: _67  and  _69
REMARK   31  A    between atoms: _69  and  _70
REMARK   32  A    between atoms: _73  and  _75
REMARK   33  A    between atoms: _75  and  _76
REMARK   34  A    between atoms: _75  and  _78
REMARK   35  A    between atoms: _78  and  _79
REMARK   36  A    between atoms: _85  and  _87
REMARK   37  A    between atoms: _87  and  _88
REMARK   38  A    between atoms: _87  and  _90
REMARK   39  A    between atoms: _90  and  _91
REMARK   40  A    between atoms: _96  and  _98
REMARK   41  A    between atoms: _98  and  _99
REMARK   42  A    between atoms: _98  and  _101
REMARK   43  A    between atoms: _101  and  _102
REMARK   44  A    between atoms: _108  and  _110
REMARK   45  A    between atoms: _110  and  _111
REMARK   46  A    between atoms: _110  and  _113
REMARK   47  A    between atoms: _113  and  _114
REMARK   48  A    between atoms: _117  and  _119
REMARK   49  A    between atoms: _119  and  _120
REMARK   50  A    between atoms: _119  and  _122
REMARK   51  A    between atoms: _122  and  _123
REMARK   52  A    between atoms: _123  and  _124
REMARK   53  A    between atoms: _124  and  _126
REMARK   54  A    between atoms: _126  and  CA_369
REMARK   55  A    between atoms: _127  and  _129
REMARK   56  A    between atoms: _129  and  _130
REMARK   57  A    between atoms: _129  and  _132
REMARK   58  A    between atoms: _132  and  _133
REMARK   59  A    between atoms: _143  and  _145
REMARK   60  A    between atoms: _145  and  _146
REMARK   61  A    between atoms: _145  and  _148
REMARK   62  A    between atoms: _148  and  _149
REMARK   63  A    between atoms: _152  and  _154
REMARK   64  A    between atoms: _154  and  _155
REMARK   65  A    between atoms: _154  and  _157
REMARK   66  A    between atoms: _157  and  _158
REMARK   67  A    between atoms: _163  and  _165
REMARK   68  A    between atoms: _165  and  _166
REMARK   69  A    between atoms: _165  and  _168
REMARK   70  A    between atoms: _168  and  _169
REMARK   71  A    between atoms: _172  and  _174
REMARK   72  A    between atoms: _174  and  _175
REMARK   73  A    between atoms: _174  and  _177
REMARK   74  A    between atoms: _177  and  _178
REMARK   75  A    between atoms: _184  and  _186
REMARK   76  A    between atoms: _186  and  _187
REMARK   77  A    between atoms: _186  and  _189
REMARK   78  A    between atoms: _189  and  _190
REMARK   79  A    between atoms: _193  and  _195
REMARK   80  A    between atoms: _195  and  _196
REMARK   81  A    between atoms: _195  and  _198
REMARK   82  A    between atoms: _198  and  _199
REMARK   83  A    between atoms: _202  and  _204
REMARK   84  A    between atoms: _204  and  _205
REMARK   85  A    between atoms: _208  and  _210
REMARK   86  A    between atoms: _210  and  _211
REMARK   87  A    between atoms: _210  and  _213
REMARK   88  A    between atoms: _216  and  _218
REMARK   89  A    between atoms: _218  and  _219
REMARK   90  A    between atoms: _218  and  _221
REMARK   91  A    between atoms: _221  and  _222
REMARK   92  A    between atoms: _226  and  ZN_368
REMARK   93  A    between atoms: _227  and  _229
REMARK   94  A    between atoms: _229  and  _230
REMARK   95  A    between atoms: _229  and  _232
REMARK   96  A    between atoms: _232  and  _233
REMARK   97  A    between atoms: _233  and  _234
REMARK   98  A    between atoms: _237  and  _239
REMARK   99  A    between atoms: _239  and  _240
REMARK  100  A    between atoms: _239  and  _242
REMARK  101  A    between atoms: _242  and  _243
REMARK  102  A    between atoms: _246  and  _248
REMARK  103  A    between atoms: _248  and  _249
REMARK  104  A    between atoms: _248  and  _251
REMARK  105  A    between atoms: _251  and  _252
REMARK  106  A    between atoms: _256  and  ZN_368
REMARK  107  A    between atoms: _257  and  _259
REMARK  108  A    between atoms: _259  and  _260
REMARK  109  A    between atoms: _259  and  _262
REMARK  110  A    between atoms: _262  and  _263
REMARK  111  A    between atoms: _265  and  _267
REMARK  112  A    between atoms: _267  and  _268
REMARK  113  A    between atoms: _267  and  _270
REMARK  114  A    between atoms: _270  and  _271
REMARK  115  A    between atoms: _274  and  _276
REMARK  116  A    between atoms: _276  and  _277
REMARK  117  A    between atoms: _279  and  _281
REMARK  118  A    between atoms: _281  and  _282
REMARK  119  A    between atoms: _281  and  _284
REMARK  120  A    between atoms: _284  and  _285
REMARK  121  A    between atoms: _289  and  ZN_368
REMARK  122  A    between atoms: _290  and  _292
REMARK  123  A    between atoms: _292  and  _293
REMARK  124  A    between atoms: _296  and  _298
REMARK  125  A    between atoms: _298  and  _299
REMARK  126  A    between atoms: _298  and  _301
REMARK  127  A    between atoms: _304  and  _306
REMARK  128  A    between atoms: _306  and  _307
REMARK  129  A    between atoms: _306  and  _309
REMARK  130  A    between atoms: _309  and  _310
REMARK  131  A    between atoms: _310  and  _311
REMARK  132  A    between atoms: _313  and  _315
REMARK  133  A    between atoms: _315  and  _316
REMARK  134  A    between atoms: _315  and  _318
REMARK  135  A    between atoms: _318  and  _319
REMARK  136  A    between atoms: _326  and  _327
REMARK  137  A    between atoms: _332  and  _334
REMARK  138  A    between atoms: _334  and  _335
REMARK  139  A    between atoms: _334  and  _337
REMARK  140  A    between atoms: _337  and  _338
REMARK  141  A    between atoms: _341  and  _343
REMARK  142  A    between atoms: _343  and  _344
REMARK  143  A    between atoms: _343  and  _346
REMARK  144  A    between atoms: _346  and  _347
REMARK  145  A    between atoms: _352  and  _353
REMARK  146  A    between atoms: _355  and  _357
REMARK  147  A    between atoms: _357  and  _358
REMARK  148  A    between atoms: _357  and  _360
REMARK  149  A    between atoms: _360  and  _361
REMARK  150  A    between atoms: _361  and  _362
REMARK  151  A    between atoms: _362  and  _363
REMARK  152  A    between atoms: _363  and  _364
REMARK                            x       y       z     vdW  Elec       q    Type
REMARK                         _______ _______ _______ _____ _____    ______ ____
ROOT
ATOM      1  O   HOH     1     -11.558   5.197 -19.703  0.00  0.00    +0.000 OA
ENDROOT
TORSDOF 0
REMARK  Name = ../refined-set-2016/3f18/3f18_pocket.pdb
REMARK  152 active torsions:
REMARK  status: ('A' for Active; 'I' for Inactive)
REMARK    1  A    between atoms: _1  and  _3
REMARK    2  A    between atoms: _3  and  _4
REMARK    3  A    between atoms: _3  and  _6
REMARK    4  A    between atoms: _6  and  _7
REMARK    5  A    between atoms: _13  and  _15
REMARK    6  A    between atoms: _15  and  _16
REMARK    7  A    between atoms: _15  and  _18
REMARK    8  A    between atoms: _18  and  _19
REMARK    9  A    between atoms: _22  and  _24
REMARK   10  A    between atoms: _24  and  _25
REMARK   11  A    between atoms: _27  and  _29
REMARK   12  A    between atoms: _29  and  _30
REMARK   13  A    between atoms: _32  and  _34
REMARK   14  A    between atoms: _34  and  _35
REMARK   15  A    between atoms: _34  and  _37
REMARK   16  A    between atoms: _35  and  _36
REMARK   17  A    between atoms: _35  and  _41
REMARK   18  A    between atoms: _36  and  CA_369
REMARK   19  A    between atoms: _37  and  _38
REMARK   20  A    between atoms: _41  and  _43
REMARK   21  A    between atoms: _43  and  _44
REMARK   22  A    between atoms: _43  and  _46
REMARK   23  A    between atoms: _46  and  _47
REMARK   24  A    between atoms: _50  and  _52
REMARK   25  A    between atoms: _52  and  _53
REMARK   26  A    between atoms: _56  and  _58
REMARK   27  A    between atoms: _58  and  _59
REMARK   28  A    between atoms: _58  and  _61
REMARK   29  A    between atoms: _61  and  _62
REMARK   30  A    between atoms: _67  and  _69
REMARK   31  A    between atoms: _69  and  _70
REMARK   32  A    between atoms: _73  and  _75
REMARK   33  A    between atoms: _75  and  _76
REMARK   34  A    between atoms: _75  and  _78
REMARK   35  A    between atoms: _78  and  _79
REMARK   36  A    between atoms: _85  and  _87
REMARK   37  A    between atoms: _87  and  _88
REMARK   38  A    between atoms: _87  and  _90
REMARK   39  A    between atoms: _90  and  _91
REMARK   40  A    between atoms: _96  and  _98
REMARK   41  A    between atoms: _98  and  _99
REMARK   42  A    between atoms: _98  and  _101
REMARK   43  A    between atoms: _101  and  _102
REMARK   44  A    between atoms: _108  and  _110
REMARK   45  A    between atoms: _110  and  _111
REMARK   46  A    between atoms: _110  and  _113
REMARK   47  A    between atoms: _113  and  _114
REMARK   48  A    between atoms: _117  and  _119
REMARK   49  A    between atoms: _119  and  _120
REMARK   50  A    between atoms: _119  and  _122
REMARK   51  A    between atoms: _122  and  _123
REMARK   52  A    between atoms: _123  and  _124
REMARK   53  A    between atoms: _124  and  _126
REMARK   54  A    between atoms: _126  and  CA_369
REMARK   55  A    between atoms: _127  and  _129
REMARK   56  A    between atoms: _129  and  _130
REMARK   57  A    between atoms: _129  and  _132
REMARK   58  A    between atoms: _132  and  _133
REMARK   59  A    between atoms: _143  and  _145
REMARK   60  A    between atoms: _145  and  _146
REMARK   61  A    between atoms: _145  and  _148
REMARK   62  A    between atoms: _148  and  _149
REMARK   63  A    between atoms: _152  and  _154
REMARK   64  A    between atoms: _154  and  _155
REMARK   65  A    between atoms: _154  and  _157
REMARK   66  A    between atoms: _157  and  _158
REMARK   67  A    between atoms: _163  and  _165
REMARK   68  A    between atoms: _165  and  _166
REMARK   69  A    between atoms: _165  and  _168
REMARK   70  A    between atoms: _168  and  _169
REMARK   71  A    between atoms: _172  and  _174
REMARK   72  A    between atoms: _174  and  _175
REMARK   73  A    between atoms: _174  and  _177
REMARK   74  A    between atoms: _177  and  _178
REMARK   75  A    between atoms: _184  and  _186
REMARK   76  A    between atoms: _186  and  _187
REMARK   77  A    between atoms: _186  and  _189
REMARK   78  A    between atoms: _189  and  _190
REMARK   79  A    between atoms: _193  and  _195
REMARK   80  A    between atoms: _195  and  _196
REMARK   81  A    between atoms: _195  and  _198
REMARK   82  A    between atoms: _198  and  _199
REMARK   83  A    between atoms: _202  and  _204
REMARK   84  A    between atoms: _204  and  _205
REMARK   85  A    between atoms: _208  and  _210
REMARK   86  A    between atoms: _210  and  _211
REMARK   87  A    between atoms: _210  and  _213
REMARK   88  A    between atoms: _216  and  _218
REMARK   89  A    between atoms: _218  and  _219
REMARK   90  A    between atoms: _218  and  _221
REMARK   91  A    between atoms: _221  and  _222
REMARK   92  A    between atoms: _226  and  ZN_368
REMARK   93  A    between atoms: _227  and  _229
REMARK   94  A    between atoms: _229  and  _230
REMARK   95  A    between atoms: _229  and  _232
REMARK   96  A    between atoms: _232  and  _233
REMARK   97  A    between atoms: _233  and  _234
REMARK   98  A    between atoms: _237  and  _239
REMARK   99  A    between atoms: _239  and  _240
REMARK  100  A    between atoms: _239  and  _242
REMARK  101  A    between atoms: _242  and  _243
REMARK  102  A    between atoms: _246  and  _248
REMARK  103  A    between atoms: _248  and  _249
REMARK  104  A    between atoms: _248  and  _251
REMARK  105  A    between atoms: _251  and  _252
REMARK  106  A    between atoms: _256  and  ZN_368
REMARK  107  A    between atoms: _257  and  _259
REMARK  108  A    between atoms: _259  and  _260
REMARK  109  A    between atoms: _259  and  _262
REMARK  110  A    between atoms: _262  and  _263
REMARK  111  A    between atoms: _265  and  _267
REMARK  112  A    between atoms: _267  and  _268
REMARK  113  A    between atoms: _267  and  _270
REMARK  114  A    between atoms: _270  and  _271
REMARK  115  A    between atoms: _274  and  _276
REMARK  116  A    between atoms: _276  and  _277
REMARK  117  A    between atoms: _279  and  _281
REMARK  118  A    between atoms: _281  and  _282
REMARK  119  A    between atoms: _281  and  _284
REMARK  120  A    between atoms: _284  and  _285
REMARK  121  A    between atoms: _289  and  ZN_368
REMARK  122  A    between atoms: _290  and  _292
REMARK  123  A    between atoms: _292  and  _293
REMARK  124  A    between atoms: _296  and  _298
REMARK  125  A    between atoms: _298  and  _299
REMARK  126  A    between atoms: _298  and  _301
REMARK  127  A    between atoms: _304  and  _306
REMARK  128  A    between atoms: _306  and  _307
REMARK  129  A    between atoms: _306  and  _309
REMARK  130  A    between atoms: _309  and  _310
REMARK  131  A    between atoms: _310  and  _311
REMARK  132  A    between atoms: _313  and  _315
REMARK  133  A    between atoms: _315  and  _316
REMARK  134  A    between atoms: _315  and  _318
REMARK  135  A    between atoms: _318  and  _319
REMARK  136  A    between atoms: _326  and  _327
REMARK  137  A    between atoms: _332  and  _334
REMARK  138  A    between atoms: _334  and  _335
REMARK  139  A    between atoms: _334  and  _337
REMARK  140  A    between atoms: _337  and  _338
REMARK  141  A    between atoms: _341  and  _343
REMARK  142  A    between atoms: _343  and  _344
REMARK  143  A    between atoms: _343  and  _346
REMARK  144  A    between atoms: _346  and  _347
REMARK  145  A    between atoms: _352  and  _353
REMARK  146  A    between atoms: _355  and  _357
REMARK  147  A    between atoms: _357  and  _358
REMARK  148  A    between atoms: _357  and  _360
REMARK  149  A    between atoms: _360  and  _361
REMARK  150  A    between atoms: _361  and  _362
REMARK  151  A    between atoms: _362  and  _363
REMARK  152  A    between atoms: _363  and  _364
REMARK                            x       y       z     vdW  Elec       q    Type
REMARK                         _______ _______ _______ _____ _____    ______ ____
ROOT
ATOM      1  O   HOH     1     -11.076 -13.826 -18.782  0.00  0.00    +0.000 OA
ENDROOT
TORSDOF 0
REMARK  Name = ../refined-set-2016/3f18/3f18_pocket.pdb
REMARK  152 active torsions:
REMARK  status: ('A' for Active; 'I' for Inactive)
REMARK    1  A    between atoms: _1  and  _3
REMARK    2  A    between atoms: _3  and  _4
REMARK    3  A    between atoms: _3  and  _6
REMARK    4  A    between atoms: _6  and  _7
REMARK    5  A    between atoms: _13  and  _15
REMARK    6  A    between atoms: _15  and  _16
REMARK    7  A    between atoms: _15  and  _18
REMARK    8  A    between atoms: _18  and  _19
REMARK    9  A    between atoms: _22  and  _24
REMARK   10  A    between atoms: _24  and  _25
REMARK   11  A    between atoms: _27  and  _29
REMARK   12  A    between atoms: _29  and  _30
REMARK   13  A    between atoms: _32  and  _34
REMARK   14  A    between atoms: _34  and  _35
REMARK   15  A    between atoms: _34  and  _37
REMARK   16  A    between atoms: _35  and  _36
REMARK   17  A    between atoms: _35  and  _41
REMARK   18  A    between atoms: _36  and  CA_369
REMARK   19  A    between atoms: _37  and  _38
REMARK   20  A    between atoms: _41  and  _43
REMARK   21  A    between atoms: _43  and  _44
REMARK   22  A    between atoms: _43  and  _46
REMARK   23  A    between atoms: _46  and  _47
REMARK   24  A    between atoms: _50  and  _52
REMARK   25  A    between atoms: _52  and  _53
REMARK   26  A    between atoms: _56  and  _58
REMARK   27  A    between atoms: _58  and  _59
REMARK   28  A    between atoms: _58  and  _61
REMARK   29  A    between atoms: _61  and  _62
REMARK   30  A    between atoms: _67  and  _69
REMARK   31  A    between atoms: _69  and  _70
REMARK   32  A    between atoms: _73  and  _75
REMARK   33  A    between atoms: _75  and  _76
REMARK   34  A    between atoms: _75  and  _78
REMARK   35  A    between atoms: _78  and  _79
REMARK   36  A    between atoms: _85  and  _87
REMARK   37  A    between atoms: _87  and  _88
REMARK   38  A    between atoms: _87  and  _90
REMARK   39  A    between atoms: _90  and  _91
REMARK   40  A    between atoms: _96  and  _98
REMARK   41  A    between atoms: _98  and  _99
REMARK   42  A    between atoms: _98  and  _101
REMARK   43  A    between atoms: _101  and  _102
REMARK   44  A    between atoms: _108  and  _110
REMARK   45  A    between atoms: _110  and  _111
REMARK   46  A    between atoms: _110  and  _113
REMARK   47  A    between atoms: _113  and  _114
REMARK   48  A    between atoms: _117  and  _119
REMARK   49  A    between atoms: _119  and  _120
REMARK   50  A    between atoms: _119  and  _122
REMARK   51  A    between atoms: _122  and  _123
REMARK   52  A    between atoms: _123  and  _124
REMARK   53  A    between atoms: _124  and  _126
REMARK   54  A    between atoms: _126  and  CA_369
REMARK   55  A    between atoms: _127  and  _129
REMARK   56  A    between atoms: _129  and  _130
REMARK   57  A    between atoms: _129  and  _132
REMARK   58  A    between atoms: _132  and  _133
REMARK   59  A    between atoms: _143  and  _145
REMARK   60  A    between atoms: _145  and  _146
REMARK   61  A    between atoms: _145  and  _148
REMARK   62  A    between atoms: _148  and  _149
REMARK   63  A    between atoms: _152  and  _154
REMARK   64  A    between atoms: _154  and  _155
REMARK   65  A    between atoms: _154  and  _157
REMARK   66  A    between atoms: _157  and  _158
REMARK   67  A    between atoms: _163  and  _165
REMARK   68  A    between atoms: _165  and  _166
REMARK   69  A    between atoms: _165  and  _168
REMARK   70  A    between atoms: _168  and  _169
REMARK   71  A    between atoms: _172  and  _174
REMARK   72  A    between atoms: _174  and  _175
REMARK   73  A    between atoms: _174  and  _177
REMARK   74  A    between atoms: _177  and  _178
REMARK   75  A    between atoms: _184  and  _186
REMARK   76  A    between atoms: _186  and  _187
REMARK   77  A    between atoms: _186  and  _189
REMARK   78  A    between atoms: _189  and  _190
REMARK   79  A    between atoms: _193  and  _195
REMARK   80  A    between atoms: _195  and  _196
REMARK   81  A    between atoms: _195  and  _198
REMARK   82  A    between atoms: _198  and  _199
REMARK   83  A    between atoms: _202  and  _204
REMARK   84  A    between atoms: _204  and  _205
REMARK   85  A    between atoms: _208  and  _210
REMARK   86  A    between atoms: _210  and  _211
REMARK   87  A    between atoms: _210  and  _213
REMARK   88  A    between atoms: _216  and  _218
REMARK   89  A    between atoms: _218  and  _219
REMARK   90  A    between atoms: _218  and  _221
REMARK   91  A    between atoms: _221  and  _222
REMARK   92  A    between atoms: _226  and  ZN_368
REMARK   93  A    between atoms: _227  and  _229
REMARK   94  A    between atoms: _229  and  _230
REMARK   95  A    between atoms: _229  and  _232
REMARK   96  A    between atoms: _232  and  _233
REMARK   97  A    between atoms: _233  and  _234
REMARK   98  A    between atoms: _237  and  _239
REMARK   99  A    between atoms: _239  and  _240
REMARK  100  A    between atoms: _239  and  _242
REMARK  101  A    between atoms: _242  and  _243
REMARK  102  A    between atoms: _246  and  _248
REMARK  103  A    between atoms: _248  and  _249
REMARK  104  A    between atoms: _248  and  _251
REMARK  105  A    between atoms: _251  and  _252
REMARK  106  A    between atoms: _256  and  ZN_368
REMARK  107  A    between atoms: _257  and  _259
REMARK  108  A    between atoms: _259  and  _260
REMARK  109  A    between atoms: _259  and  _262
REMARK  110  A    between atoms: _262  and  _263
REMARK  111  A    between atoms: _265  and  _267
REMARK  112  A    between atoms: _267  and  _268
REMARK  113  A    between atoms: _267  and  _270
REMARK  114  A    between atoms: _270  and  _271
REMARK  115  A    between atoms: _274  and  _276
REMARK  116  A    between atoms: _276  and  _277
REMARK  117  A    between atoms: _279  and  _281
REMARK  118  A    between atoms: _281  and  _282
REMARK  119  A    between atoms: _281  and  _284
REMARK  120  A    between atoms: _284  and  _285
REMARK  121  A    between atoms: _289  and  ZN_368
REMARK  122  A    between atoms: _290  and  _292
REMARK  123  A    between atoms: _292  and  _293
REMARK  124  A    between atoms: _296  and  _298
REMARK  125  A    between atoms: _298  and  _299
REMARK  126  A    between atoms: _298  and  _301
REMARK  127  A    between atoms: _304  and  _306
REMARK  128  A    between atoms: _306  and  _307
REMARK  129  A    between atoms: _306  and  _309
REMARK  130  A    between atoms: _309  and  _310
REMARK  131  A    between atoms: _310  and  _311
REMARK  132  A    between atoms: _313  and  _315
REMARK  133  A    between atoms: _315  and  _316
REMARK  134  A    between atoms: _315  and  _318
REMARK  135  A    between atoms: _318  and  _319
REMARK  136  A    between atoms: _326  and  _327
REMARK  137  A    between atoms: _332  and  _334
REMARK  138  A    between atoms: _334  and  _335
REMARK  139  A    between atoms: _334  and  _337
REMARK  140  A    between atoms: _337  and  _338
REMARK  141  A    between atoms: _341  and  _343
REMARK  142  A    between atoms: _343  and  _344
REMARK  143  A    between atoms: _343  and  _346
REMARK  144  A    between atoms: _346  and  _347
REMARK  145  A    between atoms: _352  and  _353
REMARK  146  A    between atoms: _355  and  _357
REMARK  147  A    between atoms: _357  and  _358
REMARK  148  A    between atoms: _357  and  _360
REMARK  149  A    between atoms: _360  and  _361
REMARK  150  A    between atoms: _361  and  _362
REMARK  151  A    between atoms: _362  and  _363
REMARK  152  A    between atoms: _363  and  _364
REMARK                            x       y       z     vdW  Elec       q    Type
REMARK                         _______ _______ _______ _____ _____    ______ ____
ROOT
ATOM      1  O   HOH     1     -10.804   1.287 -23.394  0.00  0.00    +0.000 OA
ENDROOT
TORSDOF 0
REMARK  Name = ../refined-set-2016/3f18/3f18_pocket.pdb
REMARK  152 active torsions:
REMARK  status: ('A' for Active; 'I' for Inactive)
REMARK    1  A    between atoms: _1  and  _3
REMARK    2  A    between atoms: _3  and  _4
REMARK    3  A    between atoms: _3  and  _6
REMARK    4  A    between atoms: _6  and  _7
REMARK    5  A    between atoms: _13  and  _15
REMARK    6  A    between atoms: _15  and  _16
REMARK    7  A    between atoms: _15  and  _18
REMARK    8  A    between atoms: _18  and  _19
REMARK    9  A    between atoms: _22  and  _24
REMARK   10  A    between atoms: _24  and  _25
REMARK   11  A    between atoms: _27  and  _29
REMARK   12  A    between atoms: _29  and  _30
REMARK   13  A    between atoms: _32  and  _34
REMARK   14  A    between atoms: _34  and  _35
REMARK   15  A    between atoms: _34  and  _37
REMARK   16  A    between atoms: _35  and  _36
REMARK   17  A    between atoms: _35  and  _41
REMARK   18  A    between atoms: _36  and  CA_369
REMARK   19  A    between atoms: _37  and  _38
REMARK   20  A    between atoms: _41  and  _43
REMARK   21  A    between atoms: _43  and  _44
REMARK   22  A    between atoms: _43  and  _46
REMARK   23  A    between atoms: _46  and  _47
REMARK   24  A    between atoms: _50  and  _52
REMARK   25  A    between atoms: _52  and  _53
REMARK   26  A    between atoms: _56  and  _58
REMARK   27  A    between atoms: _58  and  _59
REMARK   28  A    between atoms: _58  and  _61
REMARK   29  A    between atoms: _61  and  _62
REMARK   30  A    between atoms: _67  and  _69
REMARK   31  A    between atoms: _69  and  _70
REMARK   32  A    between atoms: _73  and  _75
REMARK   33  A    between atoms: _75  and  _76
REMARK   34  A    between atoms: _75  and  _78
REMARK   35  A    between atoms: _78  and  _79
REMARK   36  A    between atoms: _85  and  _87
REMARK   37  A    between atoms: _87  and  _88
REMARK   38  A    between atoms: _87  and  _90
REMARK   39  A    between atoms: _90  and  _91
REMARK   40  A    between atoms: _96  and  _98
REMARK   41  A    between atoms: _98  and  _99
REMARK   42  A    between atoms: _98  and  _101
REMARK   43  A    between atoms: _101  and  _102
REMARK   44  A    between atoms: _108  and  _110
REMARK   45  A    between atoms: _110  and  _111
REMARK   46  A    between atoms: _110  and  _113
REMARK   47  A    between atoms: _113  and  _114
REMARK   48  A    between atoms: _117  and  _119
REMARK   49  A    between atoms: _119  and  _120
REMARK   50  A    between atoms: _119  and  _122
REMARK   51  A    between atoms: _122  and  _123
REMARK   52  A    between atoms: _123  and  _124
REMARK   53  A    between atoms: _124  and  _126
REMARK   54  A    between atoms: _126  and  CA_369
REMARK   55  A    between atoms: _127  and  _129
REMARK   56  A    between atoms: _129  and  _130
REMARK   57  A    between atoms: _129  and  _132
REMARK   58  A    between atoms: _132  and  _133
REMARK   59  A    between atoms: _143  and  _145
REMARK   60  A    between atoms: _145  and  _146
REMARK   61  A    between atoms: _145  and  _148
REMARK   62  A    between atoms: _148  and  _149
REMARK   63  A    between atoms: _152  and  _154
REMARK   64  A    between atoms: _154  and  _155
REMARK   65  A    between atoms: _154  and  _157
REMARK   66  A    between atoms: _157  and  _158
REMARK   67  A    between atoms: _163  and  _165
REMARK   68  A    between atoms: _165  and  _166
REMARK   69  A    between atoms: _165  and  _168
REMARK   70  A    between atoms: _168  and  _169
REMARK   71  A    between atoms: _172  and  _174
REMARK   72  A    between atoms: _174  and  _175
REMARK   73  A    between atoms: _174  and  _177
REMARK   74  A    between atoms: _177  and  _178
REMARK   75  A    between atoms: _184  and  _186
REMARK   76  A    between atoms: _186  and  _187
REMARK   77  A    between atoms: _186  and  _189
REMARK   78  A    between atoms: _189  and  _190
REMARK   79  A    between atoms: _193  and  _195
REMARK   80  A    between atoms: _195  and  _196
REMARK   81  A    between atoms: _195  and  _198
REMARK   82  A    between atoms: _198  and  _199
REMARK   83  A    between atoms: _202  and  _204
REMARK   84  A    between atoms: _204  and  _205
REMARK   85  A    between atoms: _208  and  _210
REMARK   86  A    between atoms: _210  and  _211
REMARK   87  A    between atoms: _210  and  _213
REMARK   88  A    between atoms: _216  and  _218
REMARK   89  A    between atoms: _218  and  _219
REMARK   90  A    between atoms: _218  and  _221
REMARK   91  A    between atoms: _221  and  _222
REMARK   92  A    between atoms: _226  and  ZN_368
REMARK   93  A    between atoms: _227  and  _229
REMARK   94  A    between atoms: _229  and  _230
REMARK   95  A    between atoms: _229  and  _232
REMARK   96  A    between atoms: _232  and  _233
REMARK   97  A    between atoms: _233  and  _234
REMARK   98  A    between atoms: _237  and  _239
REMARK   99  A    between atoms: _239  and  _240
REMARK  100  A    between atoms: _239  and  _242
REMARK  101  A    between atoms: _242  and  _243
REMARK  102  A    between atoms: _246  and  _248
REMARK  103  A    between atoms: _248  and  _249
REMARK  104  A    between atoms: _248  and  _251
REMARK  105  A    between atoms: _251  and  _252
REMARK  106  A    between atoms: _256  and  ZN_368
REMARK  107  A    between atoms: _257  and  _259
REMARK  108  A    between atoms: _259  and  _260
REMARK  109  A    between atoms: _259  and  _262
REMARK  110  A    between atoms: _262  and  _263
REMARK  111  A    between atoms: _265  and  _267
REMARK  112  A    between atoms: _267  and  _268
REMARK  113  A    between atoms: _267  and  _270
REMARK  114  A    between atoms: _270  and  _271
REMARK  115  A    between atoms: _274  and  _276
REMARK  116  A    between atoms: _276  and  _277
REMARK  117  A    between atoms: _279  and  _281
REMARK  118  A    between atoms: _281  and  _282
REMARK  119  A    between atoms: _281  and  _284
REMARK  120  A    between atoms: _284  and  _285
REMARK  121  A    between atoms: _289  and  ZN_368
REMARK  122  A    between atoms: _290  and  _292
REMARK  123  A    between atoms: _292  and  _293
REMARK  124  A    between atoms: _296  and  _298
REMARK  125  A    between atoms: _298  and  _299
REMARK  126  A    between atoms: _298  and  _301
REMARK  127  A    between atoms: _304  and  _306
REMARK  128  A    between atoms: _306  and  _307
REMARK  129  A    between atoms: _306  and  _309
REMARK  130  A    between atoms: _309  and  _310
REMARK  131  A    between atoms: _310  and  _311
REMARK  132  A    between atoms: _313  and  _315
REMARK  133  A    between atoms: _315  and  _316
REMARK  134  A    between atoms: _315  and  _318
REMARK  135  A    between atoms: _318  and  _319
REMARK  136  A    between atoms: _326  and  _327
REMARK  137  A    between atoms: _332  and  _334
REMARK  138  A    between atoms: _334  and  _335
REMARK  139  A    between atoms: _334  and  _337
REMARK  140  A    between atoms: _337  and  _338
REMARK  141  A    between atoms: _341  and  _343
REMARK  142  A    between atoms: _343  and  _344
REMARK  143  A    between atoms: _343  and  _346
REMARK  144  A    between atoms: _346  and  _347
REMARK  145  A    between atoms: _352  and  _353
REMARK  146  A    between atoms: _355  and  _357
REMARK  147  A    between atoms: _357  and  _358
REMARK  148  A    between atoms: _357  and  _360
REMARK  149  A    between atoms: _360  and  _361
REMARK  150  A    between atoms: _361  and  _362
REMARK  151  A    between atoms: _362  and  _363
REMARK  152  A    between atoms: _363  and  _364
REMARK                            x       y       z     vdW  Elec       q    Type
REMARK                         _______ _______ _______ _____ _____    ______ ____
ROOT
ATOM      1  O   HOH     1     -14.243 -12.547 -22.368  0.00  0.00    +0.000 OA
ENDROOT
TORSDOF 0
REMARK  Name = ../refined-set-2016/3f18/3f18_pocket.pdb
REMARK  152 active torsions:
REMARK  status: ('A' for Active; 'I' for Inactive)
REMARK    1  A    between atoms: _1  and  _3
REMARK    2  A    between atoms: _3  and  _4
REMARK    3  A    between atoms: _3  and  _6
REMARK    4  A    between atoms: _6  and  _7
REMARK    5  A    between atoms: _13  and  _15
REMARK    6  A    between atoms: _15  and  _16
REMARK    7  A    between atoms: _15  and  _18
REMARK    8  A    between atoms: _18  and  _19
REMARK    9  A    between atoms: _22  and  _24
REMARK   10  A    between atoms: _24  and  _25
REMARK   11  A    between atoms: _27  and  _29
REMARK   12  A    between atoms: _29  and  _30
REMARK   13  A    between atoms: _32  and  _34
REMARK   14  A    between atoms: _34  and  _35
REMARK   15  A    between atoms: _34  and  _37
REMARK   16  A    between atoms: _35  and  _36
REMARK   17  A    between atoms: _35  and  _41
REMARK   18  A    between atoms: _36  and  CA_369
REMARK   19  A    between atoms: _37  and  _38
REMARK   20  A    between atoms: _41  and  _43
REMARK   21  A    between atoms: _43  and  _44
REMARK   22  A    between atoms: _43  and  _46
REMARK   23  A    between atoms: _46  and  _47
REMARK   24  A    between atoms: _50  and  _52
REMARK   25  A    between atoms: _52  and  _53
REMARK   26  A    between atoms: _56  and  _58
REMARK   27  A    between atoms: _58  and  _59
REMARK   28  A    between atoms: _58  and  _61
REMARK   29  A    between atoms: _61  and  _62
REMARK   30  A    between atoms: _67  and  _69
REMARK   31  A    between atoms: _69  and  _70
REMARK   32  A    between atoms: _73  and  _75
REMARK   33  A    between atoms: _75  and  _76
REMARK   34  A    between atoms: _75  and  _78
REMARK   35  A    between atoms: _78  and  _79
REMARK   36  A    between atoms: _85  and  _87
REMARK   37  A    between atoms: _87  and  _88
REMARK   38  A    between atoms: _87  and  _90
REMARK   39  A    between atoms: _90  and  _91
REMARK   40  A    between atoms: _96  and  _98
REMARK   41  A    between atoms: _98  and  _99
REMARK   42  A    between atoms: _98  and  _101
REMARK   43  A    between atoms: _101  and  _102
REMARK   44  A    between atoms: _108  and  _110
REMARK   45  A    between atoms: _110  and  _111
REMARK   46  A    between atoms: _110  and  _113
REMARK   47  A    between atoms: _113  and  _114
REMARK   48  A    between atoms: _117  and  _119
REMARK   49  A    between atoms: _119  and  _120
REMARK   50  A    between atoms: _119  and  _122
REMARK   51  A    between atoms: _122  and  _123
REMARK   52  A    between atoms: _123  and  _124
REMARK   53  A    between atoms: _124  and  _126
REMARK   54  A    between atoms: _126  and  CA_369
REMARK   55  A    between atoms: _127  and  _129
REMARK   56  A    between atoms: _129  and  _130
REMARK   57  A    between atoms: _129  and  _132
REMARK   58  A    between atoms: _132  and  _133
REMARK   59  A    between atoms: _143  and  _145
REMARK   60  A    between atoms: _145  and  _146
REMARK   61  A    between atoms: _145  and  _148
REMARK   62  A    between atoms: _148  and  _149
REMARK   63  A    between atoms: _152  and  _154
REMARK   64  A    between atoms: _154  and  _155
REMARK   65  A    between atoms: _154  and  _157
REMARK   66  A    between atoms: _157  and  _158
REMARK   67  A    between atoms: _163  and  _165
REMARK   68  A    between atoms: _165  and  _166
REMARK   69  A    between atoms: _165  and  _168
REMARK   70  A    between atoms: _168  and  _169
REMARK   71  A    between atoms: _172  and  _174
REMARK   72  A    between atoms: _174  and  _175
REMARK   73  A    between atoms: _174  and  _177
REMARK   74  A    between atoms: _177  and  _178
REMARK   75  A    between atoms: _184  and  _186
REMARK   76  A    between atoms: _186  and  _187
REMARK   77  A    between atoms: _186  and  _189
REMARK   78  A    between atoms: _189  and  _190
REMARK   79  A    between atoms: _193  and  _195
REMARK   80  A    between atoms: _195  and  _196
REMARK   81  A    between atoms: _195  and  _198
REMARK   82  A    between atoms: _198  and  _199
REMARK   83  A    between atoms: _202  and  _204
REMARK   84  A    between atoms: _204  and  _205
REMARK   85  A    between atoms: _208  and  _210
REMARK   86  A    between atoms: _210  and  _211
REMARK   87  A    between atoms: _210  and  _213
REMARK   88  A    between atoms: _216  and  _218
REMARK   89  A    between atoms: _218  and  _219
REMARK   90  A    between atoms: _218  and  _221
REMARK   91  A    between atoms: _221  and  _222
REMARK   92  A    between atoms: _226  and  ZN_368
REMARK   93  A    between atoms: _227  and  _229
REMARK   94  A    between atoms: _229  and  _230
REMARK   95  A    between atoms: _229  and  _232
REMARK   96  A    between atoms: _232  and  _233
REMARK   97  A    between atoms: _233  and  _234
REMARK   98  A    between atoms: _237  and  _239
REMARK   99  A    between atoms: _239  and  _240
REMARK  100  A    between atoms: _239  and  _242
REMARK  101  A    between atoms: _242  and  _243
REMARK  102  A    between atoms: _246  and  _248
REMARK  103  A    between atoms: _248  and  _249
REMARK  104  A    between atoms: _248  and  _251
REMARK  105  A    between atoms: _251  and  _252
REMARK  106  A    between atoms: _256  and  ZN_368
REMARK  107  A    between atoms: _257  and  _259
REMARK  108  A    between atoms: _259  and  _260
REMARK  109  A    between atoms: _259  and  _262
REMARK  110  A    between atoms: _262  and  _263
REMARK  111  A    between atoms: _265  and  _267
REMARK  112  A    between atoms: _267  and  _268
REMARK  113  A    between atoms: _267  and  _270
REMARK  114  A    between atoms: _270  and  _271
REMARK  115  A    between atoms: _274  and  _276
REMARK  116  A    between atoms: _276  and  _277
REMARK  117  A    between atoms: _279  and  _281
REMARK  118  A    between atoms: _281  and  _282
REMARK  119  A    between atoms: _281  and  _284
REMARK  120  A    between atoms: _284  and  _285
REMARK  121  A    between atoms: _289  and  ZN_368
REMARK  122  A    between atoms: _290  and  _292
REMARK  123  A    between atoms: _292  and  _293
REMARK  124  A    between atoms: _296  and  _298
REMARK  125  A    between atoms: _298  and  _299
REMARK  126  A    between atoms: _298  and  _301
REMARK  127  A    between atoms: _304  and  _306
REMARK  128  A    between atoms: _306  and  _307
REMARK  129  A    between atoms: _306  and  _309
REMARK  130  A    between atoms: _309  and  _310
REMARK  131  A    between atoms: _310  and  _311
REMARK  132  A    between atoms: _313  and  _315
REMARK  133  A    between atoms: _315  and  _316
REMARK  134  A    between atoms: _315  and  _318
REMARK  135  A    between atoms: _318  and  _319
REMARK  136  A    between atoms: _326  and  _327
REMARK  137  A    between atoms: _332  and  _334
REMARK  138  A    between atoms: _334  and  _335
REMARK  139  A    between atoms: _334  and  _337
REMARK  140  A    between atoms: _337  and  _338
REMARK  141  A    between atoms: _341  and  _343
REMARK  142  A    between atoms: _343  and  _344
REMARK  143  A    between atoms: _343  and  _346
REMARK  144  A    between atoms: _346  and  _347
REMARK  145  A    between atoms: _352  and  _353
REMARK  146  A    between atoms: _355  and  _357
REMARK  147  A    between atoms: _357  and  _358
REMARK  148  A    between atoms: _357  and  _360
REMARK  149  A    between atoms: _360  and  _361
REMARK  150  A    between atoms: _361  and  _362
REMARK  151  A    between atoms: _362  and  _363
REMARK  152  A    between atoms: _363  and  _364
REMARK                            x       y       z     vdW  Elec       q    Type
REMARK                         _______ _______ _______ _____ _____    ______ ____
ROOT
ATOM      1  O   HOH     1      -4.754 -11.851 -19.635  0.00  0.00    +0.000 OA
ENDROOT
TORSDOF 0
REMARK  Name = ../refined-set-2016/3f18/3f18_pocket.pdb
REMARK  152 active torsions:
REMARK  status: ('A' for Active; 'I' for Inactive)
REMARK    1  A    between atoms: _1  and  _3
REMARK    2  A    between atoms: _3  and  _4
REMARK    3  A    between atoms: _3  and  _6
REMARK    4  A    between atoms: _6  and  _7
REMARK    5  A    between atoms: _13  and  _15
REMARK    6  A    between atoms: _15  and  _16
REMARK    7  A    between atoms: _15  and  _18
REMARK    8  A    between atoms: _18  and  _19
REMARK    9  A    between atoms: _22  and  _24
REMARK   10  A    between atoms: _24  and  _25
REMARK   11  A    between atoms: _27  and  _29
REMARK   12  A    between atoms: _29  and  _30
REMARK   13  A    between atoms: _32  and  _34
REMARK   14  A    between atoms: _34  and  _35
REMARK   15  A    between atoms: _34  and  _37
REMARK   16  A    between atoms: _35  and  _36
REMARK   17  A    between atoms: _35  and  _41
REMARK   18  A    between atoms: _36  and  CA_369
REMARK   19  A    between atoms: _37  and  _38
REMARK   20  A    between atoms: _41  and  _43
REMARK   21  A    between atoms: _43  and  _44
REMARK   22  A    between atoms: _43  and  _46
REMARK   23  A    between atoms: _46  and  _47
REMARK   24  A    between atoms: _50  and  _52
REMARK   25  A    between atoms: _52  and  _53
REMARK   26  A    between atoms: _56  and  _58
REMARK   27  A    between atoms: _58  and  _59
REMARK   28  A    between atoms: _58  and  _61
REMARK   29  A    between atoms: _61  and  _62
REMARK   30  A    between atoms: _67  and  _69
REMARK   31  A    between atoms: _69  and  _70
REMARK   32  A    between atoms: _73  and  _75
REMARK   33  A    between atoms: _75  and  _76
REMARK   34  A    between atoms: _75  and  _78
REMARK   35  A    between atoms: _78  and  _79
REMARK   36  A    between atoms: _85  and  _87
REMARK   37  A    between atoms: _87  and  _88
REMARK   38  A    between atoms: _87  and  _90
REMARK   39  A    between atoms: _90  and  _91
REMARK   40  A    between atoms: _96  and  _98
REMARK   41  A    between atoms: _98  and  _99
REMARK   42  A    between atoms: _98  and  _101
REMARK   43  A    between atoms: _101  and  _102
REMARK   44  A    between atoms: _108  and  _110
REMARK   45  A    between atoms: _110  and  _111
REMARK   46  A    between atoms: _110  and  _113
REMARK   47  A    between atoms: _113  and  _114
REMARK   48  A    between atoms: _117  and  _119
REMARK   49  A    between atoms: _119  and  _120
REMARK   50  A    between atoms: _119  and  _122
REMARK   51  A    between atoms: _122  and  _123
REMARK   52  A    between atoms: _123  and  _124
REMARK   53  A    between atoms: _124  and  _126
REMARK   54  A    between atoms: _126  and  CA_369
REMARK   55  A    between atoms: _127  and  _129
REMARK   56  A    between atoms: _129  and  _130
REMARK   57  A    between atoms: _129  and  _132
REMARK   58  A    between atoms: _132  and  _133
REMARK   59  A    between atoms: _143  and  _145
REMARK   60  A    between atoms: _145  and  _146
REMARK   61  A    between atoms: _145  and  _148
REMARK   62  A    between atoms: _148  and  _149
REMARK   63  A    between atoms: _152  and  _154
REMARK   64  A    between atoms: _154  and  _155
REMARK   65  A    between atoms: _154  and  _157
REMARK   66  A    between atoms: _157  and  _158
REMARK   67  A    between atoms: _163  and  _165
REMARK   68  A    between atoms: _165  and  _166
REMARK   69  A    between atoms: _165  and  _168
REMARK   70  A    between atoms: _168  and  _169
REMARK   71  A    between atoms: _172  and  _174
REMARK   72  A    between atoms: _174  and  _175
REMARK   73  A    between atoms: _174  and  _177
REMARK   74  A    between atoms: _177  and  _178
REMARK   75  A    between atoms: _184  and  _186
REMARK   76  A    between atoms: _186  and  _187
REMARK   77  A    between atoms: _186  and  _189
REMARK   78  A    between atoms: _189  and  _190
REMARK   79  A    between atoms: _193  and  _195
REMARK   80  A    between atoms: _195  and  _196
REMARK   81  A    between atoms: _195  and  _198
REMARK   82  A    between atoms: _198  and  _199
REMARK   83  A    between atoms: _202  and  _204
REMARK   84  A    between atoms: _204  and  _205
REMARK   85  A    between atoms: _208  and  _210
REMARK   86  A    between atoms: _210  and  _211
REMARK   87  A    between atoms: _210  and  _213
REMARK   88  A    between atoms: _216  and  _218
REMARK   89  A    between atoms: _218  and  _219
REMARK   90  A    between atoms: _218  and  _221
REMARK   91  A    between atoms: _221  and  _222
REMARK   92  A    between atoms: _226  and  ZN_368
REMARK   93  A    between atoms: _227  and  _229
REMARK   94  A    between atoms: _229  and  _230
REMARK   95  A    between atoms: _229  and  _232
REMARK   96  A    between atoms: _232  and  _233
REMARK   97  A    between atoms: _233  and  _234
REMARK   98  A    between atoms: _237  and  _239
REMARK   99  A    between atoms: _239  and  _240
REMARK  100  A    between atoms: _239  and  _242
REMARK  101  A    between atoms: _242  and  _243
REMARK  102  A    between atoms: _246  and  _248
REMARK  103  A    between atoms: _248  and  _249
REMARK  104  A    between atoms: _248  and  _251
REMARK  105  A    between atoms: _251  and  _252
REMARK  106  A    between atoms: _256  and  ZN_368
REMARK  107  A    between atoms: _257  and  _259
REMARK  108  A    between atoms: _259  and  _260
REMARK  109  A    between atoms: _259  and  _262
REMARK  110  A    between atoms: _262  and  _263
REMARK  111  A    between atoms: _265  and  _267
REMARK  112  A    between atoms: _267  and  _268
REMARK  113  A    between atoms: _267  and  _270
REMARK  114  A    between atoms: _270  and  _271
REMARK  115  A    between atoms: _274  and  _276
REMARK  116  A    between atoms: _276  and  _277
REMARK  117  A    between atoms: _279  and  _281
REMARK  118  A    between atoms: _281  and  _282
REMARK  119  A    between atoms: _281  and  _284
REMARK  120  A    between atoms: _284  and  _285
REMARK  121  A    between atoms: _289  and  ZN_368
REMARK  122  A    between atoms: _290  and  _292
REMARK  123  A    between atoms: _292  and  _293
REMARK  124  A    between atoms: _296  and  _298
REMARK  125  A    between atoms: _298  and  _299
REMARK  126  A    between atoms: _298  and  _301
REMARK  127  A    between atoms: _304  and  _306
REMARK  128  A    between atoms: _306  and  _307
REMARK  129  A    between atoms: _306  and  _309
REMARK  130  A    between atoms: _309  and  _310
REMARK  131  A    between atoms: _310  and  _311
REMARK  132  A    between atoms: _313  and  _315
REMARK  133  A    between atoms: _315  and  _316
REMARK  134  A    between atoms: _315  and  _318
REMARK  135  A    between atoms: _318  and  _319
REMARK  136  A    between atoms: _326  and  _327
REMARK  137  A    between atoms: _332  and  _334
REMARK  138  A    between atoms: _334  and  _335
REMARK  139  A    between atoms: _334  and  _337
REMARK  140  A    between atoms: _337  and  _338
REMARK  141  A    between atoms: _341  and  _343
REMARK  142  A    between atoms: _343  and  _344
REMARK  143  A    between atoms: _343  and  _346
REMARK  144  A    between atoms: _346  and  _347
REMARK  145  A    between atoms: _352  and  _353
REMARK  146  A    between atoms: _355  and  _357
REMARK  147  A    between atoms: _357  and  _358
REMARK  148  A    between atoms: _357  and  _360
REMARK  149  A    between atoms: _360  and  _361
REMARK  150  A    between atoms: _361  and  _362
REMARK  151  A    between atoms: _362  and  _363
REMARK  152  A    between atoms: _363  and  _364
REMARK                            x       y       z     vdW  Elec       q    Type
REMARK                         _______ _______ _______ _____ _____    ______ ____
ROOT
ATOM      1  O   HOH     1     -12.674  -0.631 -23.687  0.00  0.00    +0.000 OA
ENDROOT
TORSDOF 0
REMARK  Name = ../refined-set-2016/3f18/3f18_pocket.pdb
REMARK  152 active torsions:
REMARK  status: ('A' for Active; 'I' for Inactive)
REMARK    1  A    between atoms: _1  and  _3
REMARK    2  A    between atoms: _3  and  _4
REMARK    3  A    between atoms: _3  and  _6
REMARK    4  A    between atoms: _6  and  _7
REMARK    5  A    between atoms: _13  and  _15
REMARK    6  A    between atoms: _15  and  _16
REMARK    7  A    between atoms: _15  and  _18
REMARK    8  A    between atoms: _18  and  _19
REMARK    9  A    between atoms: _22  and  _24
REMARK   10  A    between atoms: _24  and  _25
REMARK   11  A    between atoms: _27  and  _29
REMARK   12  A    between atoms: _29  and  _30
REMARK   13  A    between atoms: _32  and  _34
REMARK   14  A    between atoms: _34  and  _35
REMARK   15  A    between atoms: _34  and  _37
REMARK   16  A    between atoms: _35  and  _36
REMARK   17  A    between atoms: _35  and  _41
REMARK   18  A    between atoms: _36  and  CA_369
REMARK   19  A    between atoms: _37  and  _38
REMARK   20  A    between atoms: _41  and  _43
REMARK   21  A    between atoms: _43  and  _44
REMARK   22  A    between atoms: _43  and  _46
REMARK   23  A    between atoms: _46  and  _47
REMARK   24  A    between atoms: _50  and  _52
REMARK   25  A    between atoms: _52  and  _53
REMARK   26  A    between atoms: _56  and  _58
REMARK   27  A    between atoms: _58  and  _59
REMARK   28  A    between atoms: _58  and  _61
REMARK   29  A    between atoms: _61  and  _62
REMARK   30  A    between atoms: _67  and  _69
REMARK   31  A    between atoms: _69  and  _70
REMARK   32  A    between atoms: _73  and  _75
REMARK   33  A    between atoms: _75  and  _76
REMARK   34  A    between atoms: _75  and  _78
REMARK   35  A    between atoms: _78  and  _79
REMARK   36  A    between atoms: _85  and  _87
REMARK   37  A    between atoms: _87  and  _88
REMARK   38  A    between atoms: _87  and  _90
REMARK   39  A    between atoms: _90  and  _91
REMARK   40  A    between atoms: _96  and  _98
REMARK   41  A    between atoms: _98  and  _99
REMARK   42  A    between atoms: _98  and  _101
REMARK   43  A    between atoms: _101  and  _102
REMARK   44  A    between atoms: _108  and  _110
REMARK   45  A    between atoms: _110  and  _111
REMARK   46  A    between atoms: _110  and  _113
REMARK   47  A    between atoms: _113  and  _114
REMARK   48  A    between atoms: _117  and  _119
REMARK   49  A    between atoms: _119  and  _120
REMARK   50  A    between atoms: _119  and  _122
REMARK   51  A    between atoms: _122  and  _123
REMARK   52  A    between atoms: _123  and  _124
REMARK   53  A    between atoms: _124  and  _126
REMARK   54  A    between atoms: _126  and  CA_369
REMARK   55  A    between atoms: _127  and  _129
REMARK   56  A    between atoms: _129  and  _130
REMARK   57  A    between atoms: _129  and  _132
REMARK   58  A    between atoms: _132  and  _133
REMARK   59  A    between atoms: _143  and  _145
REMARK   60  A    between atoms: _145  and  _146
REMARK   61  A    between atoms: _145  and  _148
REMARK   62  A    between atoms: _148  and  _149
REMARK   63  A    between atoms: _152  and  _154
REMARK   64  A    between atoms: _154  and  _155
REMARK   65  A    between atoms: _154  and  _157
REMARK   66  A    between atoms: _157  and  _158
REMARK   67  A    between atoms: _163  and  _165
REMARK   68  A    between atoms: _165  and  _166
REMARK   69  A    between atoms: _165  and  _168
REMARK   70  A    between atoms: _168  and  _169
REMARK   71  A    between atoms: _172  and  _174
REMARK   72  A    between atoms: _174  and  _175
REMARK   73  A    between atoms: _174  and  _177
REMARK   74  A    between atoms: _177  and  _178
REMARK   75  A    between atoms: _184  and  _186
REMARK   76  A    between atoms: _186  and  _187
REMARK   77  A    between atoms: _186  and  _189
REMARK   78  A    between atoms: _189  and  _190
REMARK   79  A    between atoms: _193  and  _195
REMARK   80  A    between atoms: _195  and  _196
REMARK   81  A    between atoms: _195  and  _198
REMARK   82  A    between atoms: _198  and  _199
REMARK   83  A    between atoms: _202  and  _204
REMARK   84  A    between atoms: _204  and  _205
REMARK   85  A    between atoms: _208  and  _210
REMARK   86  A    between atoms: _210  and  _211
REMARK   87  A    between atoms: _210  and  _213
REMARK   88  A    between atoms: _216  and  _218
REMARK   89  A    between atoms: _218  and  _219
REMARK   90  A    between atoms: _218  and  _221
REMARK   91  A    between atoms: _221  and  _222
REMARK   92  A    between atoms: _226  and  ZN_368
REMARK   93  A    between atoms: _227  and  _229
REMARK   94  A    between atoms: _229  and  _230
REMARK   95  A    between atoms: _229  and  _232
REMARK   96  A    between atoms: _232  and  _233
REMARK   97  A    between atoms: _233  and  _234
REMARK   98  A    between atoms: _237  and  _239
REMARK   99  A    between atoms: _239  and  _240
REMARK  100  A    between atoms: _239  and  _242
REMARK  101  A    between atoms: _242  and  _243
REMARK  102  A    between atoms: _246  and  _248
REMARK  103  A    between atoms: _248  and  _249
REMARK  104  A    between atoms: _248  and  _251
REMARK  105  A    between atoms: _251  and  _252
REMARK  106  A    between atoms: _256  and  ZN_368
REMARK  107  A    between atoms: _257  and  _259
REMARK  108  A    between atoms: _259  and  _260
REMARK  109  A    between atoms: _259  and  _262
REMARK  110  A    between atoms: _262  and  _263
REMARK  111  A    between atoms: _265  and  _267
REMARK  112  A    between atoms: _267  and  _268
REMARK  113  A    between atoms: _267  and  _270
REMARK  114  A    between atoms: _270  and  _271
REMARK  115  A    between atoms: _274  and  _276
REMARK  116  A    between atoms: _276  and  _277
REMARK  117  A    between atoms: _279  and  _281
REMARK  118  A    between atoms: _281  and  _282
REMARK  119  A    between atoms: _281  and  _284
REMARK  120  A    between atoms: _284  and  _285
REMARK  121  A    between atoms: _289  and  ZN_368
REMARK  122  A    between atoms: _290  and  _292
REMARK  123  A    between atoms: _292  and  _293
REMARK  124  A    between atoms: _296  and  _298
REMARK  125  A    between atoms: _298  and  _299
REMARK  126  A    between atoms: _298  and  _301
REMARK  127  A    between atoms: _304  and  _306
REMARK  128  A    between atoms: _306  and  _307
REMARK  129  A    between atoms: _306  and  _309
REMARK  130  A    between atoms: _309  and  _310
REMARK  131  A    between atoms: _310  and  _311
REMARK  132  A    between atoms: _313  and  _315
REMARK  133  A    between atoms: _315  and  _316
REMARK  134  A    between atoms: _315  and  _318
REMARK  135  A    between atoms: _318  and  _319
REMARK  136  A    between atoms: _326  and  _327
REMARK  137  A    between atoms: _332  and  _334
REMARK  138  A    between atoms: _334  and  _335
REMARK  139  A    between atoms: _334  and  _337
REMARK  140  A    between atoms: _337  and  _338
REMARK  141  A    between atoms: _341  and  _343
REMARK  142  A    between atoms: _343  and  _344
REMARK  143  A    between atoms: _343  and  _346
REMARK  144  A    between atoms: _346  and  _347
REMARK  145  A    between atoms: _352  and  _353
REMARK  146  A    between atoms: _355  and  _357
REMARK  147  A    between atoms: _357  and  _358
REMARK  148  A    between atoms: _357  and  _360
REMARK  149  A    between atoms: _360  and  _361
REMARK  150  A    between atoms: _361  and  _362
REMARK  151  A    between atoms: _362  and  _363
REMARK  152  A    between atoms: _363  and  _364
REMARK                            x       y       z     vdW  Elec       q    Type
REMARK                         _______ _______ _______ _____ _____    ______ ____
ROOT
ATOM      1  O   HOH     1     -15.924  -8.463 -24.522  0.00  0.00    +0.000 OA
ENDROOT
TORSDOF 0
REMARK  Name = ../refined-set-2016/3f18/3f18_pocket.pdb
REMARK  152 active torsions:
REMARK  status: ('A' for Active; 'I' for Inactive)
REMARK    1  A    between atoms: _1  and  _3
REMARK    2  A    between atoms: _3  and  _4
REMARK    3  A    between atoms: _3  and  _6
REMARK    4  A    between atoms: _6  and  _7
REMARK    5  A    between atoms: _13  and  _15
REMARK    6  A    between atoms: _15  and  _16
REMARK    7  A    between atoms: _15  and  _18
REMARK    8  A    between atoms: _18  and  _19
REMARK    9  A    between atoms: _22  and  _24
REMARK   10  A    between atoms: _24  and  _25
REMARK   11  A    between atoms: _27  and  _29
REMARK   12  A    between atoms: _29  and  _30
REMARK   13  A    between atoms: _32  and  _34
REMARK   14  A    between atoms: _34  and  _35
REMARK   15  A    between atoms: _34  and  _37
REMARK   16  A    between atoms: _35  and  _36
REMARK   17  A    between atoms: _35  and  _41
REMARK   18  A    between atoms: _36  and  CA_369
REMARK   19  A    between atoms: _37  and  _38
REMARK   20  A    between atoms: _41  and  _43
REMARK   21  A    between atoms: _43  and  _44
REMARK   22  A    between atoms: _43  and  _46
REMARK   23  A    between atoms: _46  and  _47
REMARK   24  A    between atoms: _50  and  _52
REMARK   25  A    between atoms: _52  and  _53
REMARK   26  A    between atoms: _56  and  _58
REMARK   27  A    between atoms: _58  and  _59
REMARK   28  A    between atoms: _58  and  _61
REMARK   29  A    between atoms: _61  and  _62
REMARK   30  A    between atoms: _67  and  _69
REMARK   31  A    between atoms: _69  and  _70
REMARK   32  A    between atoms: _73  and  _75
REMARK   33  A    between atoms: _75  and  _76
REMARK   34  A    between atoms: _75  and  _78
REMARK   35  A    between atoms: _78  and  _79
REMARK   36  A    between atoms: _85  and  _87
REMARK   37  A    between atoms: _87  and  _88
REMARK   38  A    between atoms: _87  and  _90
REMARK   39  A    between atoms: _90  and  _91
REMARK   40  A    between atoms: _96  and  _98
REMARK   41  A    between atoms: _98  and  _99
REMARK   42  A    between atoms: _98  and  _101
REMARK   43  A    between atoms: _101  and  _102
REMARK   44  A    between atoms: _108  and  _110
REMARK   45  A    between atoms: _110  and  _111
REMARK   46  A    between atoms: _110  and  _113
REMARK   47  A    between atoms: _113  and  _114
REMARK   48  A    between atoms: _117  and  _119
REMARK   49  A    between atoms: _119  and  _120
REMARK   50  A    between atoms: _119  and  _122
REMARK   51  A    between atoms: _122  and  _123
REMARK   52  A    between atoms: _123  and  _124
REMARK   53  A    between atoms: _124  and  _126
REMARK   54  A    between atoms: _126  and  CA_369
REMARK   55  A    between atoms: _127  and  _129
REMARK   56  A    between atoms: _129  and  _130
REMARK   57  A    between atoms: _129  and  _132
REMARK   58  A    between atoms: _132  and  _133
REMARK   59  A    between atoms: _143  and  _145
REMARK   60  A    between atoms: _145  and  _146
REMARK   61  A    between atoms: _145  and  _148
REMARK   62  A    between atoms: _148  and  _149
REMARK   63  A    between atoms: _152  and  _154
REMARK   64  A    between atoms: _154  and  _155
REMARK   65  A    between atoms: _154  and  _157
REMARK   66  A    between atoms: _157  and  _158
REMARK   67  A    between atoms: _163  and  _165
REMARK   68  A    between atoms: _165  and  _166
REMARK   69  A    between atoms: _165  and  _168
REMARK   70  A    between atoms: _168  and  _169
REMARK   71  A    between atoms: _172  and  _174
REMARK   72  A    between atoms: _174  and  _175
REMARK   73  A    between atoms: _174  and  _177
REMARK   74  A    between atoms: _177  and  _178
REMARK   75  A    between atoms: _184  and  _186
REMARK   76  A    between atoms: _186  and  _187
REMARK   77  A    between atoms: _186  and  _189
REMARK   78  A    between atoms: _189  and  _190
REMARK   79  A    between atoms: _193  and  _195
REMARK   80  A    between atoms: _195  and  _196
REMARK   81  A    between atoms: _195  and  _198
REMARK   82  A    between atoms: _198  and  _199
REMARK   83  A    between atoms: _202  and  _204
REMARK   84  A    between atoms: _204  and  _205
REMARK   85  A    between atoms: _208  and  _210
REMARK   86  A    between atoms: _210  and  _211
REMARK   87  A    between atoms: _210  and  _213
REMARK   88  A    between atoms: _216  and  _218
REMARK   89  A    between atoms: _218  and  _219
REMARK   90  A    between atoms: _218  and  _221
REMARK   91  A    between atoms: _221  and  _222
REMARK   92  A    between atoms: _226  and  ZN_368
REMARK   93  A    between atoms: _227  and  _229
REMARK   94  A    between atoms: _229  and  _230
REMARK   95  A    between atoms: _229  and  _232
REMARK   96  A    between atoms: _232  and  _233
REMARK   97  A    between atoms: _233  and  _234
REMARK   98  A    between atoms: _237  and  _239
REMARK   99  A    between atoms: _239  and  _240
REMARK  100  A    between atoms: _239  and  _242
REMARK  101  A    between atoms: _242  and  _243
REMARK  102  A    between atoms: _246  and  _248
REMARK  103  A    between atoms: _248  and  _249
REMARK  104  A    between atoms: _248  and  _251
REMARK  105  A    between atoms: _251  and  _252
REMARK  106  A    between atoms: _256  and  ZN_368
REMARK  107  A    between atoms: _257  and  _259
REMARK  108  A    between atoms: _259  and  _260
REMARK  109  A    between atoms: _259  and  _262
REMARK  110  A    between atoms: _262  and  _263
REMARK  111  A    between atoms: _265  and  _267
REMARK  112  A    between atoms: _267  and  _268
REMARK  113  A    between atoms: _267  and  _270
REMARK  114  A    between atoms: _270  and  _271
REMARK  115  A    between atoms: _274  and  _276
REMARK  116  A    between atoms: _276  and  _277
REMARK  117  A    between atoms: _279  and  _281
REMARK  118  A    between atoms: _281  and  _282
REMARK  119  A    between atoms: _281  and  _284
REMARK  120  A    between atoms: _284  and  _285
REMARK  121  A    between atoms: _289  and  ZN_368
REMARK  122  A    between atoms: _290  and  _292
REMARK  123  A    between atoms: _292  and  _293
REMARK  124  A    between atoms: _296  and  _298
REMARK  125  A    between atoms: _298  and  _299
REMARK  126  A    between atoms: _298  and  _301
REMARK  127  A    between atoms: _304  and  _306
REMARK  128  A    between atoms: _306  and  _307
REMARK  129  A    between atoms: _306  and  _309
REMARK  130  A    between atoms: _309  and  _310
REMARK  131  A    between atoms: _310  and  _311
REMARK  132  A    between atoms: _313  and  _315
REMARK  133  A    between atoms: _315  and  _316
REMARK  134  A    between atoms: _315  and  _318
REMARK  135  A    between atoms: _318  and  _319
REMARK  136  A    between atoms: _326  and  _327
REMARK  137  A    between atoms: _332  and  _334
REMARK  138  A    between atoms: _334  and  _335
REMARK  139  A    between atoms: _334  and  _337
REMARK  140  A    between atoms: _337  and  _338
REMARK  141  A    between atoms: _341  and  _343
REMARK  142  A    between atoms: _343  and  _344
REMARK  143  A    between atoms: _343  and  _346
REMARK  144  A    between atoms: _346  and  _347
REMARK  145  A    between atoms: _352  and  _353
REMARK  146  A    between atoms: _355  and  _357
REMARK  147  A    between atoms: _357  and  _358
REMARK  148  A    between atoms: _357  and  _360
REMARK  149  A    between atoms: _360  and  _361
REMARK  150  A    between atoms: _361  and  _362
REMARK  151  A    between atoms: _362  and  _363
REMARK  152  A    between atoms: _363  and  _364
REMARK                            x       y       z     vdW  Elec       q    Type
REMARK                         _______ _______ _______ _____ _____    ______ ____
ROOT
ATOM      1  O   HOH     1     -15.777  -2.105 -21.997  0.00  0.00    +0.000 OA
ENDROOT
TORSDOF 0
