REMARK  Name = ../refined-set-2016/4tte/4tte_pocket.pdb
REMARK  123 active torsions:
REMARK  status: ('A' for Active; 'I' for Inactive)
REMARK    1  A    between atoms: _1  and  _3
REMARK    2  A    between atoms: _3  and  _4
REMARK    3  A    between atoms: _3  and  _6
REMARK    4  A    between atoms: _6  and  _7
REMARK    5  A    between atoms: _13  and  _15
REMARK    6  A    between atoms: _15  and  _16
REMARK    7  A    between atoms: _15  and  _18
REMARK    8  A    between atoms: _18  and  _19
REMARK    9  A    between atoms: _19  and  _20
REMARK   10  A    between atoms: _20  and  _21
REMARK   11  A    between atoms: _30  and  _32
REMARK   12  A    between atoms: _32  and  _33
REMARK   13  A    between atoms: _32  and  _35
REMARK   14  A    between atoms: _38  and  _40
REMARK   15  A    between atoms: _40  and  _41
REMARK   16  A    between atoms: _40  and  _43
REMARK   17  A    between atoms: _43  and  _44
REMARK   18  A    between atoms: _50  and  _52
REMARK   19  A    between atoms: _52  and  _53
REMARK   20  A    between atoms: _52  and  _55
REMARK   21  A    between atoms: _55  and  _56
REMARK   22  A    between atoms: _59  and  _61
REMARK   23  A    between atoms: _61  and  _62
REMARK   24  A    between atoms: _61  and  _64
REMARK   25  A    between atoms: _64  and  _65
REMARK   26  A    between atoms: _65  and  _66
REMARK   27  A    between atoms: _66  and  _67
REMARK   28  A    between atoms: _67  and  _68
REMARK   29  A    between atoms: _73  and  _74
REMARK   30  A    between atoms: _79  and  _81
REMARK   31  A    between atoms: _81  and  _82
REMARK   32  A    between atoms: _81  and  _84
REMARK   33  A    between atoms: _87  and  _89
REMARK   34  A    between atoms: _89  and  _90
REMARK   35  A    between atoms: _89  and  _92
REMARK   36  A    between atoms: _92  and  _93
REMARK   37  A    between atoms: _96  and  _98
REMARK   38  A    between atoms: _98  and  _99
REMARK   39  A    between atoms: _98  and  _101
REMARK   40  A    between atoms: _101  and  _102
REMARK   41  A    between atoms: _102  and  _103
REMARK   42  A    between atoms: _106  and  _108
REMARK   43  A    between atoms: _108  and  _109
REMARK   44  A    between atoms: _108  and  _111
REMARK   45  A    between atoms: _114  and  _116
REMARK   46  A    between atoms: _116  and  _117
REMARK   47  A    between atoms: _116  and  _119
REMARK   48  A    between atoms: _119  and  _120
REMARK   49  A    between atoms: _123  and  _125
REMARK   50  A    between atoms: _125  and  _126
REMARK   51  A    between atoms: _125  and  _128
REMARK   52  A    between atoms: _128  and  _129
REMARK   53  A    between atoms: _134  and  _135
REMARK   54  A    between atoms: _137  and  _139
REMARK   55  A    between atoms: _139  and  _140
REMARK   56  A    between atoms: _139  and  _142
REMARK   57  A    between atoms: _142  and  _143
REMARK   58  A    between atoms: _146  and  _148
REMARK   59  A    between atoms: _148  and  _149
REMARK   60  A    between atoms: _148  and  _151
REMARK   61  A    between atoms: _151  and  _152
REMARK   62  A    between atoms: _152  and  _153
REMARK   63  A    between atoms: _155  and  _157
REMARK   64  A    between atoms: _157  and  _158
REMARK   65  A    between atoms: _157  and  _160
REMARK   66  A    between atoms: _160  and  _161
REMARK   67  A    between atoms: _164  and  _166
REMARK   68  A    between atoms: _166  and  _167
REMARK   69  A    between atoms: _166  and  _169
REMARK   70  A    between atoms: _169  and  _170
REMARK   71  A    between atoms: _172  and  _174
REMARK   72  A    between atoms: _174  and  _175
REMARK   73  A    between atoms: _174  and  _177
REMARK   74  A    between atoms: _177  and  _178
REMARK   75  A    between atoms: _181  and  _183
REMARK   76  A    between atoms: _183  and  _184
REMARK   77  A    between atoms: _183  and  _186
REMARK   78  A    between atoms: _188  and  _190
REMARK   79  A    between atoms: _190  and  _191
REMARK   80  A    between atoms: _190  and  _193
REMARK   81  A    between atoms: _193  and  _194
REMARK   82  A    between atoms: _199  and  _201
REMARK   83  A    between atoms: _201  and  _202
REMARK   84  A    between atoms: _205  and  _207
REMARK   85  A    between atoms: _207  and  _208
REMARK   86  A    between atoms: _207  and  _210
REMARK   87  A    between atoms: _210  and  _211
REMARK   88  A    between atoms: _214  and  _216
REMARK   89  A    between atoms: _216  and  _217
REMARK   90  A    between atoms: _216  and  _219
REMARK   91  A    between atoms: _219  and  _220
REMARK   92  A    between atoms: _220  and  _221
REMARK   93  A    between atoms: _224  and  _226
REMARK   94  A    between atoms: _226  and  _227
REMARK   95  A    between atoms: _226  and  _229
REMARK   96  A    between atoms: _229  and  _230
REMARK   97  A    between atoms: _235  and  _236
REMARK   98  A    between atoms: _238  and  _240
REMARK   99  A    between atoms: _240  and  _241
REMARK  100  A    between atoms: _240  and  _243
REMARK  101  A    between atoms: _243  and  _244
REMARK  102  A    between atoms: _249  and  _251
REMARK  103  A    between atoms: _251  and  _252
REMARK  104  A    between atoms: _254  and  _256
REMARK  105  A    between atoms: _256  and  _257
REMARK  106  A    between atoms: _256  and  _259
REMARK  107  A    between atoms: _259  and  _260
REMARK  108  A    between atoms: _263  and  _265
REMARK  109  A    between atoms: _265  and  _266
REMARK  110  A    between atoms: _265  and  _268
REMARK  111  A    between atoms: _268  and  _269
REMARK  112  A    between atoms: _272  and  _274
REMARK  113  A    between atoms: _274  and  _275
REMARK  114  A    between atoms: _274  and  _277
REMARK  115  A    between atoms: _277  and  _278
REMARK  116  A    between atoms: _281  and  _283
REMARK  117  A    between atoms: _283  and  _284
REMARK  118  A    between atoms: _283  and  _286
REMARK  119  A    between atoms: _286  and  _287
REMARK  120  A    between atoms: _287  and  _288
REMARK  121  A    between atoms: _288  and  _289
REMARK  122  A    between atoms: _298  and  _300
REMARK  123  A    between atoms: _300  and  _301
REMARK                            x       y       z     vdW  Elec       q    Type
REMARK                         _______ _______ _______ _____ _____    ______ ____
ROOT
ATOM      1  C   PHE A   4     -18.908  22.942   3.664  0.00  0.00    +0.241 C 
ATOM      2  O   PHE A   4     -20.145  22.927   3.784  0.00  0.00    -0.273 OA
ATOM      3  N   THR A   5     -18.268  22.085   2.880  0.00  0.00    -0.295 N 
ATOM      4  H   THR A   5     -17.228  22.068   2.889  0.00  0.00    +0.150 HD
ENDROOT
BRANCH   1   5
ATOM      5  CA  PHE A   4     -18.082  23.954   4.431  0.00  0.00    +0.153 C 
BRANCH   5   8
ATOM      6  C   VAL A   3     -15.739  23.312   4.830  0.00  0.00    +0.241 C 
ATOM      7  O   VAL A   3     -15.978  22.688   5.845  0.00  0.00    -0.273 OA
ATOM      8  N   PHE A   4     -16.656  23.921   4.079  0.00  0.00    -0.297 N 
ATOM      9  H   PHE A   4     -16.349  24.394   3.205  0.00  0.00    +0.150 HD
BRANCH   6  10
ATOM     10  CA  VAL A   3     -14.300  23.401   4.336  0.00  0.00    +0.149 C 
BRANCH  10  12
ATOM     11  C   ARG A   2     -14.641  22.958   1.995  0.00  0.00    +0.241 C 
ATOM     12  N   VAL A   3     -14.217  23.771   2.942  0.00  0.00    -0.297 N 
ATOM     13  H   VAL A   3     -13.816  24.694   2.681  0.00  0.00    +0.150 HD
ATOM     14  O   ARG A   2     -15.219  21.911   2.244  0.00  0.00    -0.273 OA
BRANCH  11  15
ATOM     15  CA  ARG A   2     -14.443  23.407   0.560  0.00  0.00    +0.149 C 
BRANCH  15  18
ATOM     16  C   PHE A   1     -15.755  25.449   0.747  0.00  0.00    +0.239 C 
ATOM     17  O   PHE A   1     -16.644  24.863   1.365  0.00  0.00    -0.274 OA
ATOM     18  N   ARG A   2     -14.621  24.844   0.379  0.00  0.00    -0.297 N 
ATOM     19  H   ARG A   2     -13.854  25.406  -0.043  0.00  0.00    +0.150 HD
BRANCH  16  20
ATOM     20  CA  PHE A   1     -15.846  26.935   0.525  0.00  0.00    +0.149 C 
BRANCH  20  21
ATOM     21  N   PHE A   1     -14.805  27.446  -0.365  0.00  0.00    -0.238 NA
ATOM     22  H   PHE A   1     -14.895  27.275  -1.387  0.00  0.00    +0.142 HD
ENDBRANCH  20  21
BRANCH  20  23
ATOM     23  CB  PHE A   1     -17.234  27.336  -0.003  0.00  0.00    +0.053 C 
BRANCH  23  24
ATOM     24  CG  PHE A   1     -17.369  28.774  -0.315  0.00  0.00    -0.020 A 
ATOM     25  CD2 PHE A   1     -16.707  29.751   0.453  0.00  0.00    -0.004 A 
ATOM     26  CE2 PHE A   1     -16.859  31.087   0.154  0.00  0.00    -0.000 A 
ATOM     27  CZ  PHE A   1     -17.655  31.484  -0.907  0.00  0.00    -0.000 A 
ATOM     28  CE1 PHE A   1     -18.316  30.520  -1.661  0.00  0.00    -0.000 A 
ATOM     29  CD1 PHE A   1     -18.185  29.196  -1.355  0.00  0.00    -0.004 A 
ENDBRANCH  23  24
ENDBRANCH  20  23
ENDBRANCH  16  20
ENDBRANCH  15  18
BRANCH  15  30
ATOM     30  CB  ARG A   2     -13.060  22.965   0.054  0.00  0.00    +0.033 C 
BRANCH  30  31
ATOM     31  CG  ARG A   2     -12.878  21.459   0.107  0.00  0.00    +0.045 C 
BRANCH  31  32
ATOM     32  CD  ARG A   2     -11.412  21.023   0.016  0.00  0.00    +0.174 C 
BRANCH  32  33
ATOM     33  NE  ARG A   2     -10.550  21.692   1.003  0.00  0.00    -0.265 N 
ATOM     34  CZ  ARG A   2     -10.528  21.464   2.322  0.00  0.00    +0.342 C 
ATOM     35  NH2 ARG A   2      -9.698  22.165   3.075  0.00  0.00    -0.292 N 
ATOM     36 HH21 ARG A   2      -9.665  22.004   4.102  0.00  0.00    +0.255 HD
ATOM     37 HH22 ARG A   2      -9.078  22.878   2.641  0.00  0.00    +0.255 HD
ATOM     38  NH1 ARG A   2     -11.324  20.563   2.900  0.00  0.00    -0.292 N 
ATOM     39 HH11 ARG A   2     -11.279  20.413   3.928  0.00  0.00    +0.255 HD
ATOM     40 HH12 ARG A   2     -11.990  20.011   2.322  0.00  0.00    +0.255 HD
ATOM     41  HE  ARG A   2      -9.894  22.413   0.641  0.00  0.00    +0.259 HD
ENDBRANCH  32  33
ENDBRANCH  31  32
ENDBRANCH  30  31
ENDBRANCH  15  30
ENDBRANCH  11  15
ENDBRANCH  10  12
BRANCH  10  42
ATOM     42  CB  VAL A   3     -13.492  24.329   5.272  0.00  0.00    +0.027 C 
ATOM     43  CG2 VAL A   3     -13.911  25.786   5.167  0.00  0.00    +0.002 C 
ATOM     44  CG1 VAL A   3     -12.008  24.158   4.986  0.00  0.00    +0.002 C 
ENDBRANCH  10  42
ENDBRANCH   6  10
ENDBRANCH   5   8
BRANCH   5  45
ATOM     45  CB  PHE A   4     -18.633  25.363   4.170  0.00  0.00    +0.055 C 
BRANCH  45  46
ATOM     46  CG  PHE A   4     -17.840  26.458   4.844  0.00  0.00    -0.020 A 
ATOM     47  CD2 PHE A   4     -17.645  26.460   6.232  0.00  0.00    -0.004 A 
ATOM     48  CE2 PHE A   4     -16.902  27.454   6.835  0.00  0.00    -0.000 A 
ATOM     49  CZ  PHE A   4     -16.359  28.468   6.076  0.00  0.00    -0.000 A 
ATOM     50  CE1 PHE A   4     -16.567  28.488   4.706  0.00  0.00    -0.000 A 
ATOM     51  CD1 PHE A   4     -17.300  27.487   4.100  0.00  0.00    -0.004 A 
ENDBRANCH  45  46
ENDBRANCH   5  45
ENDBRANCH   1   5
BRANCH   3  52
ATOM     52  CA  THR A   5     -18.991  21.162   2.002  0.00  0.00    +0.176 C 
BRANCH  52  53
ATOM     53  C   THR A   5     -19.446  19.879   2.686  0.00  0.00    +0.243 C 
ATOM     54  N   LYS A   6     -18.834  19.560   3.821  0.00  0.00    -0.297 N 
ATOM     55  H   LYS A   6     -18.116  20.209   4.201  0.00  0.00    +0.150 HD
ATOM     56  O   THR A   5     -20.327  19.189   2.169  0.00  0.00    -0.273 OA
BRANCH  54  57
ATOM     57  CA  LYS A   6     -19.131  18.334   4.555  0.00  0.00    +0.149 C 
BRANCH  57  58
ATOM     58  C   LYS A   6     -19.151  18.667   6.038  0.00  0.00    +0.244 C 
ATOM     59  N   PRO A   7     -19.819  17.831   6.848  0.00  0.00    -0.272 N 
ATOM     60  CA  PRO A   7     -19.780  18.092   8.285  0.00  0.00    +0.152 C 
ATOM     61  CB  PRO A   7     -20.637  16.973   8.881  0.00  0.00    +0.031 C 
ATOM     62  CG  PRO A   7     -21.385  16.368   7.748  0.00  0.00    +0.024 C 
ATOM     63  CD  PRO A   7     -20.541  16.590   6.529  0.00  0.00    +0.094 C 
ATOM     64  O   LYS A   6     -18.549  19.655   6.462  0.00  0.00    -0.273 OA
BRANCH  60  65
ATOM     65  C   PRO A   7     -18.350  18.006   8.815  0.00  0.00    +0.241 C 
ATOM     66  N   VAL A   8     -18.065  18.752   9.875  0.00  0.00    -0.297 N 
ATOM     67  H   VAL A   8     -18.789  19.400  10.247  0.00  0.00    +0.150 HD
ATOM     68  O   PRO A   7     -17.520  17.294   8.240  0.00  0.00    -0.273 OA
BRANCH  66  69
ATOM     69  CA  VAL A   8     -16.762  18.689  10.535  0.00  0.00    +0.149 C 
BRANCH  69  70
ATOM     70  C   VAL A   8     -16.551  17.253  11.028  0.00  0.00    +0.241 C 
ATOM     71  O   VAL A   8     -17.471  16.649  11.581  0.00  0.00    -0.273 OA
ATOM     72  N   ASP A   9     -15.355  16.707  10.798  0.00  0.00    -0.298 N 
ATOM     73  H   ASP A   9     -14.614  17.288  10.358  0.00  0.00    +0.150 HD
BRANCH  72  74
ATOM     74  CA  ASP A   9     -15.051  15.313  11.146  0.00  0.00    +0.148 C 
BRANCH  74  75
ATOM     75  C   ASP A   9     -14.764  15.197  12.647  0.00  0.00    +0.227 C 
ATOM     76  O   ASP A   9     -13.827  15.834  13.138  0.00  0.00    -0.286 OA
ENDBRANCH  74  75
BRANCH  74  77
ATOM     77  CB  ASP A   9     -13.838  14.824  10.335  0.00  0.00    +0.142 C 
BRANCH  77  78
ATOM     78  CG  ASP A   9     -13.729  13.300  10.276  0.00  0.00    +0.367 C 
ATOM     79  OD2 ASP A   9     -14.164  12.601  11.220  0.00  0.00    -0.246 OA
ATOM     80  OD1 ASP A   9     -13.191  12.800   9.265  0.00  0.00    -0.246 OA
ENDBRANCH  77  78
ENDBRANCH  74  77
ENDBRANCH  72  74
ENDBRANCH  69  70
BRANCH  69  81
ATOM     81  CB  VAL A   8     -16.657  19.690  11.710  0.00  0.00    +0.027 C 
ATOM     82  CG2 VAL A   8     -15.382  19.445  12.510  0.00  0.00    +0.002 C 
ATOM     83  CG1 VAL A   8     -16.695  21.126  11.200  0.00  0.00    +0.002 C 
ENDBRANCH  69  81
ENDBRANCH  66  69
ENDBRANCH  60  65
ENDBRANCH  57  58
BRANCH  57  84
ATOM     84  CB  LYS A   6     -18.052  17.276   4.275  0.00  0.00    +0.029 C 
BRANCH  84  85
ATOM     85  CG  LYS A   6     -18.039  16.737   2.847  0.00  0.00    +0.000 C 
BRANCH  85  86
ATOM     86  CD  LYS A   6     -19.337  16.007   2.458  0.00  0.00    -0.024 C 
BRANCH  86  87
ATOM     87  CE  LYS A   6     -19.531  15.961   0.942  0.00  0.00    -0.086 C 
BRANCH  87  88
ATOM     88  NZ  LYS A   6     -20.791  15.278   0.518  0.00  0.00    +0.380 N 
ATOM     89  HZ1 LYS A   6     -21.608  15.780   0.920  0.00  0.00    -0.089 HD
ATOM     90  HZ2 LYS A   6     -20.783  14.296   0.860  0.00  0.00    -0.089 HD
ATOM     91  HZ3 LYS A   6     -20.855  15.285  -0.520  0.00  0.00    -0.089 HD
ENDBRANCH  87  88
ENDBRANCH  86  87
ENDBRANCH  85  86
ENDBRANCH  84  85
ENDBRANCH  57  84
ENDBRANCH  54  57
ENDBRANCH  52  53
BRANCH  52  92
ATOM     92  CB  THR A   5     -18.192  20.749   0.760  0.00  0.00    +0.137 C 
ATOM     93  CG2 THR A   5     -17.978  21.944  -0.167  0.00  0.00    +0.034 C 
BRANCH  92  94
ATOM     94  OG1 THR A   5     -16.930  20.186   1.136  0.00  0.00    -0.382 OA
ATOM     95  HG1 THR A   5     -16.409  20.857   1.644  0.00  0.00    +0.210 HD
ENDBRANCH  92  94
ENDBRANCH  52  92
ENDBRANCH   3  52
TORSDOF 36
REMARK  Name = ../refined-set-2016/4tte/4tte_pocket.pdb
REMARK  123 active torsions:
REMARK  status: ('A' for Active; 'I' for Inactive)
REMARK    1  A    between atoms: _1  and  _3
REMARK    2  A    between atoms: _3  and  _4
REMARK    3  A    between atoms: _3  and  _6
REMARK    4  A    between atoms: _6  and  _7
REMARK    5  A    between atoms: _13  and  _15
REMARK    6  A    between atoms: _15  and  _16
REMARK    7  A    between atoms: _15  and  _18
REMARK    8  A    between atoms: _18  and  _19
REMARK    9  A    between atoms: _19  and  _20
REMARK   10  A    between atoms: _20  and  _21
REMARK   11  A    between atoms: _30  and  _32
REMARK   12  A    between atoms: _32  and  _33
REMARK   13  A    between atoms: _32  and  _35
REMARK   14  A    between atoms: _38  and  _40
REMARK   15  A    between atoms: _40  and  _41
REMARK   16  A    between atoms: _40  and  _43
REMARK   17  A    between atoms: _43  and  _44
REMARK   18  A    between atoms: _50  and  _52
REMARK   19  A    between atoms: _52  and  _53
REMARK   20  A    between atoms: _52  and  _55
REMARK   21  A    between atoms: _55  and  _56
REMARK   22  A    between atoms: _59  and  _61
REMARK   23  A    between atoms: _61  and  _62
REMARK   24  A    between atoms: _61  and  _64
REMARK   25  A    between atoms: _64  and  _65
REMARK   26  A    between atoms: _65  and  _66
REMARK   27  A    between atoms: _66  and  _67
REMARK   28  A    between atoms: _67  and  _68
REMARK   29  A    between atoms: _73  and  _74
REMARK   30  A    between atoms: _79  and  _81
REMARK   31  A    between atoms: _81  and  _82
REMARK   32  A    between atoms: _81  and  _84
REMARK   33  A    between atoms: _87  and  _89
REMARK   34  A    between atoms: _89  and  _90
REMARK   35  A    between atoms: _89  and  _92
REMARK   36  A    between atoms: _92  and  _93
REMARK   37  A    between atoms: _96  and  _98
REMARK   38  A    between atoms: _98  and  _99
REMARK   39  A    between atoms: _98  and  _101
REMARK   40  A    between atoms: _101  and  _102
REMARK   41  A    between atoms: _102  and  _103
REMARK   42  A    between atoms: _106  and  _108
REMARK   43  A    between atoms: _108  and  _109
REMARK   44  A    between atoms: _108  and  _111
REMARK   45  A    between atoms: _114  and  _116
REMARK   46  A    between atoms: _116  and  _117
REMARK   47  A    between atoms: _116  and  _119
REMARK   48  A    between atoms: _119  and  _120
REMARK   49  A    between atoms: _123  and  _125
REMARK   50  A    between atoms: _125  and  _126
REMARK   51  A    between atoms: _125  and  _128
REMARK   52  A    between atoms: _128  and  _129
REMARK   53  A    between atoms: _134  and  _135
REMARK   54  A    between atoms: _137  and  _139
REMARK   55  A    between atoms: _139  and  _140
REMARK   56  A    between atoms: _139  and  _142
REMARK   57  A    between atoms: _142  and  _143
REMARK   58  A    between atoms: _146  and  _148
REMARK   59  A    between atoms: _148  and  _149
REMARK   60  A    between atoms: _148  and  _151
REMARK   61  A    between atoms: _151  and  _152
REMARK   62  A    between atoms: _152  and  _153
REMARK   63  A    between atoms: _155  and  _157
REMARK   64  A    between atoms: _157  and  _158
REMARK   65  A    between atoms: _157  and  _160
REMARK   66  A    between atoms: _160  and  _161
REMARK   67  A    between atoms: _164  and  _166
REMARK   68  A    between atoms: _166  and  _167
REMARK   69  A    between atoms: _166  and  _169
REMARK   70  A    between atoms: _169  and  _170
REMARK   71  A    between atoms: _172  and  _174
REMARK   72  A    between atoms: _174  and  _175
REMARK   73  A    between atoms: _174  and  _177
REMARK   74  A    between atoms: _177  and  _178
REMARK   75  A    between atoms: _181  and  _183
REMARK   76  A    between atoms: _183  and  _184
REMARK   77  A    between atoms: _183  and  _186
REMARK   78  A    between atoms: _188  and  _190
REMARK   79  A    between atoms: _190  and  _191
REMARK   80  A    between atoms: _190  and  _193
REMARK   81  A    between atoms: _193  and  _194
REMARK   82  A    between atoms: _199  and  _201
REMARK   83  A    between atoms: _201  and  _202
REMARK   84  A    between atoms: _205  and  _207
REMARK   85  A    between atoms: _207  and  _208
REMARK   86  A    between atoms: _207  and  _210
REMARK   87  A    between atoms: _210  and  _211
REMARK   88  A    between atoms: _214  and  _216
REMARK   89  A    between atoms: _216  and  _217
REMARK   90  A    between atoms: _216  and  _219
REMARK   91  A    between atoms: _219  and  _220
REMARK   92  A    between atoms: _220  and  _221
REMARK   93  A    between atoms: _224  and  _226
REMARK   94  A    between atoms: _226  and  _227
REMARK   95  A    between atoms: _226  and  _229
REMARK   96  A    between atoms: _229  and  _230
REMARK   97  A    between atoms: _235  and  _236
REMARK   98  A    between atoms: _238  and  _240
REMARK   99  A    between atoms: _240  and  _241
REMARK  100  A    between atoms: _240  and  _243
REMARK  101  A    between atoms: _243  and  _244
REMARK  102  A    between atoms: _249  and  _251
REMARK  103  A    between atoms: _251  and  _252
REMARK  104  A    between atoms: _254  and  _256
REMARK  105  A    between atoms: _256  and  _257
REMARK  106  A    between atoms: _256  and  _259
REMARK  107  A    between atoms: _259  and  _260
REMARK  108  A    between atoms: _263  and  _265
REMARK  109  A    between atoms: _265  and  _266
REMARK  110  A    between atoms: _265  and  _268
REMARK  111  A    between atoms: _268  and  _269
REMARK  112  A    between atoms: _272  and  _274
REMARK  113  A    between atoms: _274  and  _275
REMARK  114  A    between atoms: _274  and  _277
REMARK  115  A    between atoms: _277  and  _278
REMARK  116  A    between atoms: _281  and  _283
REMARK  117  A    between atoms: _283  and  _284
REMARK  118  A    between atoms: _283  and  _286
REMARK  119  A    between atoms: _286  and  _287
REMARK  120  A    between atoms: _287  and  _288
REMARK  121  A    between atoms: _288  and  _289
REMARK  122  A    between atoms: _298  and  _300
REMARK  123  A    between atoms: _300  and  _301
REMARK                            x       y       z     vdW  Elec       q    Type
REMARK                         _______ _______ _______ _____ _____    ______ ____
ROOT
ATOM      1  C   GLU A   1     -10.613  16.418  14.545  0.00  0.00    +0.238 C 
ATOM      2  O   GLU A   1      -9.673  16.894  15.187  0.00  0.00    -0.274 OA
ATOM      3  N   VAL A   2     -11.886  16.767  14.750  0.00  0.00    -0.298 N 
ATOM      4  H   VAL A   2     -12.630  16.292  14.200  0.00  0.00    +0.150 HD
ENDROOT
BRANCH   1   5
ATOM      5  CA  GLU A   1     -10.345  15.371  13.455  0.00  0.00    +0.145 C 
BRANCH   5   6
ATOM      6  N   GLU A   1     -11.266  14.239  13.527  0.00  0.00    -0.238 NA
ATOM      7  H   GLU A   1     -12.029  14.156  12.826  0.00  0.00    +0.142 HD
ENDBRANCH   5   6
BRANCH   5   8
ATOM      8  CB  GLU A   1     -10.393  16.015  12.063  0.00  0.00    +0.038 C 
BRANCH   8   9
ATOM      9  CG  GLU A   1     -10.036  15.072  10.920  0.00  0.00    +0.116 C 
BRANCH   9  10
ATOM     10  CD  GLU A   1      -8.674  14.426  11.089  0.00  0.00    +0.365 C 
ATOM     11  OE2 GLU A   1      -7.745  15.111  11.566  0.00  0.00    -0.246 OA
ATOM     12  OE1 GLU A   1      -8.534  13.232  10.747  0.00  0.00    -0.246 OA
ENDBRANCH   9  10
ENDBRANCH   8   9
ENDBRANCH   5   8
ENDBRANCH   1   5
BRANCH   3  13
ATOM     13  CA  VAL A   2     -12.274  17.798  15.724  0.00  0.00    +0.137 C 
BRANCH  13  14
ATOM     14  CB  VAL A   2     -12.844  19.064  15.041  0.00  0.00    +0.026 C 
ATOM     15  CG2 VAL A   2     -12.744  20.258  15.976  0.00  0.00    +0.002 C 
ATOM     16  CG1 VAL A   2     -12.110  19.366  13.740  0.00  0.00    +0.002 C 
ENDBRANCH  13  14
BRANCH  13  17
ATOM     17  C   VAL A   2     -13.309  17.220  16.694  0.00  0.00    +0.227 C 
ATOM     18  O   VAL A   2     -14.517  17.342  16.465  0.00  0.00    -0.286 OA
ENDBRANCH  13  17
ENDBRANCH   3  13
TORSDOF 8
REMARK  Name = ../refined-set-2016/4tte/4tte_pocket.pdb
REMARK  123 active torsions:
REMARK  status: ('A' for Active; 'I' for Inactive)
REMARK    1  A    between atoms: _1  and  _3
REMARK    2  A    between atoms: _3  and  _4
REMARK    3  A    between atoms: _3  and  _6
REMARK    4  A    between atoms: _6  and  _7
REMARK    5  A    between atoms: _13  and  _15
REMARK    6  A    between atoms: _15  and  _16
REMARK    7  A    between atoms: _15  and  _18
REMARK    8  A    between atoms: _18  and  _19
REMARK    9  A    between atoms: _19  and  _20
REMARK   10  A    between atoms: _20  and  _21
REMARK   11  A    between atoms: _30  and  _32
REMARK   12  A    between atoms: _32  and  _33
REMARK   13  A    between atoms: _32  and  _35
REMARK   14  A    between atoms: _38  and  _40
REMARK   15  A    between atoms: _40  and  _41
REMARK   16  A    between atoms: _40  and  _43
REMARK   17  A    between atoms: _43  and  _44
REMARK   18  A    between atoms: _50  and  _52
REMARK   19  A    between atoms: _52  and  _53
REMARK   20  A    between atoms: _52  and  _55
REMARK   21  A    between atoms: _55  and  _56
REMARK   22  A    between atoms: _59  and  _61
REMARK   23  A    between atoms: _61  and  _62
REMARK   24  A    between atoms: _61  and  _64
REMARK   25  A    between atoms: _64  and  _65
REMARK   26  A    between atoms: _65  and  _66
REMARK   27  A    between atoms: _66  and  _67
REMARK   28  A    between atoms: _67  and  _68
REMARK   29  A    between atoms: _73  and  _74
REMARK   30  A    between atoms: _79  and  _81
REMARK   31  A    between atoms: _81  and  _82
REMARK   32  A    between atoms: _81  and  _84
REMARK   33  A    between atoms: _87  and  _89
REMARK   34  A    between atoms: _89  and  _90
REMARK   35  A    between atoms: _89  and  _92
REMARK   36  A    between atoms: _92  and  _93
REMARK   37  A    between atoms: _96  and  _98
REMARK   38  A    between atoms: _98  and  _99
REMARK   39  A    between atoms: _98  and  _101
REMARK   40  A    between atoms: _101  and  _102
REMARK   41  A    between atoms: _102  and  _103
REMARK   42  A    between atoms: _106  and  _108
REMARK   43  A    between atoms: _108  and  _109
REMARK   44  A    between atoms: _108  and  _111
REMARK   45  A    between atoms: _114  and  _116
REMARK   46  A    between atoms: _116  and  _117
REMARK   47  A    between atoms: _116  and  _119
REMARK   48  A    between atoms: _119  and  _120
REMARK   49  A    between atoms: _123  and  _125
REMARK   50  A    between atoms: _125  and  _126
REMARK   51  A    between atoms: _125  and  _128
REMARK   52  A    between atoms: _128  and  _129
REMARK   53  A    between atoms: _134  and  _135
REMARK   54  A    between atoms: _137  and  _139
REMARK   55  A    between atoms: _139  and  _140
REMARK   56  A    between atoms: _139  and  _142
REMARK   57  A    between atoms: _142  and  _143
REMARK   58  A    between atoms: _146  and  _148
REMARK   59  A    between atoms: _148  and  _149
REMARK   60  A    between atoms: _148  and  _151
REMARK   61  A    between atoms: _151  and  _152
REMARK   62  A    between atoms: _152  and  _153
REMARK   63  A    between atoms: _155  and  _157
REMARK   64  A    between atoms: _157  and  _158
REMARK   65  A    between atoms: _157  and  _160
REMARK   66  A    between atoms: _160  and  _161
REMARK   67  A    between atoms: _164  and  _166
REMARK   68  A    between atoms: _166  and  _167
REMARK   69  A    between atoms: _166  and  _169
REMARK   70  A    between atoms: _169  and  _170
REMARK   71  A    between atoms: _172  and  _174
REMARK   72  A    between atoms: _174  and  _175
REMARK   73  A    between atoms: _174  and  _177
REMARK   74  A    between atoms: _177  and  _178
REMARK   75  A    between atoms: _181  and  _183
REMARK   76  A    between atoms: _183  and  _184
REMARK   77  A    between atoms: _183  and  _186
REMARK   78  A    between atoms: _188  and  _190
REMARK   79  A    between atoms: _190  and  _191
REMARK   80  A    between atoms: _190  and  _193
REMARK   81  A    between atoms: _193  and  _194
REMARK   82  A    between atoms: _199  and  _201
REMARK   83  A    between atoms: _201  and  _202
REMARK   84  A    between atoms: _205  and  _207
REMARK   85  A    between atoms: _207  and  _208
REMARK   86  A    between atoms: _207  and  _210
REMARK   87  A    between atoms: _210  and  _211
REMARK   88  A    between atoms: _214  and  _216
REMARK   89  A    between atoms: _216  and  _217
REMARK   90  A    between atoms: _216  and  _219
REMARK   91  A    between atoms: _219  and  _220
REMARK   92  A    between atoms: _220  and  _221
REMARK   93  A    between atoms: _224  and  _226
REMARK   94  A    between atoms: _226  and  _227
REMARK   95  A    between atoms: _226  and  _229
REMARK   96  A    between atoms: _229  and  _230
REMARK   97  A    between atoms: _235  and  _236
REMARK   98  A    between atoms: _238  and  _240
REMARK   99  A    between atoms: _240  and  _241
REMARK  100  A    between atoms: _240  and  _243
REMARK  101  A    between atoms: _243  and  _244
REMARK  102  A    between atoms: _249  and  _251
REMARK  103  A    between atoms: _251  and  _252
REMARK  104  A    between atoms: _254  and  _256
REMARK  105  A    between atoms: _256  and  _257
REMARK  106  A    between atoms: _256  and  _259
REMARK  107  A    between atoms: _259  and  _260
REMARK  108  A    between atoms: _263  and  _265
REMARK  109  A    between atoms: _265  and  _266
REMARK  110  A    between atoms: _265  and  _268
REMARK  111  A    between atoms: _268  and  _269
REMARK  112  A    between atoms: _272  and  _274
REMARK  113  A    between atoms: _274  and  _275
REMARK  114  A    between atoms: _274  and  _277
REMARK  115  A    between atoms: _277  and  _278
REMARK  116  A    between atoms: _281  and  _283
REMARK  117  A    between atoms: _283  and  _284
REMARK  118  A    between atoms: _283  and  _286
REMARK  119  A    between atoms: _286  and  _287
REMARK  120  A    between atoms: _287  and  _288
REMARK  121  A    between atoms: _288  and  _289
REMARK  122  A    between atoms: _298  and  _300
REMARK  123  A    between atoms: _300  and  _301
REMARK                            x       y       z     vdW  Elec       q    Type
REMARK                         _______ _______ _______ _____ _____    ______ ____
ROOT
ATOM      1  CA  TYR A   2     -16.827  20.358  17.695  0.00  0.00    +0.141 C 
ENDROOT
BRANCH   1   4
ATOM      2  C   ASP A   1     -15.912  19.744  19.842  0.00  0.00    +0.239 C 
ATOM      3  O   ASP A   1     -16.615  20.605  20.383  0.00  0.00    -0.274 OA
ATOM      4  N   TYR A   2     -15.951  19.526  18.527  0.00  0.00    -0.298 N 
ATOM      5  H   TYR A   2     -15.370  18.778  18.098  0.00  0.00    +0.150 HD
BRANCH   2   6
ATOM      6  CA  ASP A   1     -14.945  18.903  20.697  0.00  0.00    +0.156 C 
BRANCH   6   7
ATOM      7  N   ASP A   1     -14.128  17.975  19.915  0.00  0.00    -0.238 NA
ATOM      8  H   ASP A   1     -13.158  18.236  19.647  0.00  0.00    +0.142 HD
ENDBRANCH   6   7
BRANCH   6   9
ATOM      9  CB  ASP A   1     -14.074  19.848  21.523  0.00  0.00    +0.140 C 
BRANCH   9  10
ATOM     10  CG  ASP A   1     -13.416  20.902  20.681  0.00  0.00    +0.367 C 
ATOM     11  OD2 ASP A   1     -13.660  22.109  20.915  0.00  0.00    -0.246 OA
ATOM     12  OD1 ASP A   1     -12.668  20.507  19.764  0.00  0.00    -0.246 OA
ENDBRANCH   9  10
ENDBRANCH   6   9
ENDBRANCH   2   6
ENDBRANCH   1   4
BRANCH   1  13
ATOM     13  C   TYR A   2     -18.286  20.190  18.094  0.00  0.00    +0.227 C 
ATOM     14  O   TYR A   2     -18.964  21.183  18.400  0.00  0.00    -0.286 OA
ENDBRANCH   1  13
BRANCH   1  15
ATOM     15  CB  TYR A   2     -16.670  20.065  16.206  0.00  0.00    +0.054 C 
BRANCH  15  16
ATOM     16  CG  TYR A   2     -17.360  21.115  15.360  0.00  0.00    -0.020 A 
ATOM     17  CD2 TYR A   2     -16.759  22.352  15.139  0.00  0.00    -0.001 A 
ATOM     18  CE2 TYR A   2     -17.375  23.324  14.372  0.00  0.00    +0.036 A 
ATOM     19  CZ  TYR A   2     -18.638  23.072  13.837  0.00  0.00    +0.134 A 
ATOM     20  CE1 TYR A   2     -19.274  21.866  14.062  0.00  0.00    +0.036 A 
ATOM     21  CD1 TYR A   2     -18.635  20.892  14.830  0.00  0.00    -0.001 A 
BRANCH  19  22
ATOM     22  OH  TYR A   2     -19.248  24.049  13.115  0.00  0.00    -0.506 OA
ATOM     23  HH  TYR A   2     -18.650  24.836  13.056  0.00  0.00    +0.292 HD
ENDBRANCH  19  22
ENDBRANCH  15  16
ENDBRANCH   1  15
TORSDOF 9
REMARK  Name = ../refined-set-2016/4tte/4tte_pocket.pdb
REMARK  123 active torsions:
REMARK  status: ('A' for Active; 'I' for Inactive)
REMARK    1  A    between atoms: _1  and  _3
REMARK    2  A    between atoms: _3  and  _4
REMARK    3  A    between atoms: _3  and  _6
REMARK    4  A    between atoms: _6  and  _7
REMARK    5  A    between atoms: _13  and  _15
REMARK    6  A    between atoms: _15  and  _16
REMARK    7  A    between atoms: _15  and  _18
REMARK    8  A    between atoms: _18  and  _19
REMARK    9  A    between atoms: _19  and  _20
REMARK   10  A    between atoms: _20  and  _21
REMARK   11  A    between atoms: _30  and  _32
REMARK   12  A    between atoms: _32  and  _33
REMARK   13  A    between atoms: _32  and  _35
REMARK   14  A    between atoms: _38  and  _40
REMARK   15  A    between atoms: _40  and  _41
REMARK   16  A    between atoms: _40  and  _43
REMARK   17  A    between atoms: _43  and  _44
REMARK   18  A    between atoms: _50  and  _52
REMARK   19  A    between atoms: _52  and  _53
REMARK   20  A    between atoms: _52  and  _55
REMARK   21  A    between atoms: _55  and  _56
REMARK   22  A    between atoms: _59  and  _61
REMARK   23  A    between atoms: _61  and  _62
REMARK   24  A    between atoms: _61  and  _64
REMARK   25  A    between atoms: _64  and  _65
REMARK   26  A    between atoms: _65  and  _66
REMARK   27  A    between atoms: _66  and  _67
REMARK   28  A    between atoms: _67  and  _68
REMARK   29  A    between atoms: _73  and  _74
REMARK   30  A    between atoms: _79  and  _81
REMARK   31  A    between atoms: _81  and  _82
REMARK   32  A    between atoms: _81  and  _84
REMARK   33  A    between atoms: _87  and  _89
REMARK   34  A    between atoms: _89  and  _90
REMARK   35  A    between atoms: _89  and  _92
REMARK   36  A    between atoms: _92  and  _93
REMARK   37  A    between atoms: _96  and  _98
REMARK   38  A    between atoms: _98  and  _99
REMARK   39  A    between atoms: _98  and  _101
REMARK   40  A    between atoms: _101  and  _102
REMARK   41  A    between atoms: _102  and  _103
REMARK   42  A    between atoms: _106  and  _108
REMARK   43  A    between atoms: _108  and  _109
REMARK   44  A    between atoms: _108  and  _111
REMARK   45  A    between atoms: _114  and  _116
REMARK   46  A    between atoms: _116  and  _117
REMARK   47  A    between atoms: _116  and  _119
REMARK   48  A    between atoms: _119  and  _120
REMARK   49  A    between atoms: _123  and  _125
REMARK   50  A    between atoms: _125  and  _126
REMARK   51  A    between atoms: _125  and  _128
REMARK   52  A    between atoms: _128  and  _129
REMARK   53  A    between atoms: _134  and  _135
REMARK   54  A    between atoms: _137  and  _139
REMARK   55  A    between atoms: _139  and  _140
REMARK   56  A    between atoms: _139  and  _142
REMARK   57  A    between atoms: _142  and  _143
REMARK   58  A    between atoms: _146  and  _148
REMARK   59  A    between atoms: _148  and  _149
REMARK   60  A    between atoms: _148  and  _151
REMARK   61  A    between atoms: _151  and  _152
REMARK   62  A    between atoms: _152  and  _153
REMARK   63  A    between atoms: _155  and  _157
REMARK   64  A    between atoms: _157  and  _158
REMARK   65  A    between atoms: _157  and  _160
REMARK   66  A    between atoms: _160  and  _161
REMARK   67  A    between atoms: _164  and  _166
REMARK   68  A    between atoms: _166  and  _167
REMARK   69  A    between atoms: _166  and  _169
REMARK   70  A    between atoms: _169  and  _170
REMARK   71  A    between atoms: _172  and  _174
REMARK   72  A    between atoms: _174  and  _175
REMARK   73  A    between atoms: _174  and  _177
REMARK   74  A    between atoms: _177  and  _178
REMARK   75  A    between atoms: _181  and  _183
REMARK   76  A    between atoms: _183  and  _184
REMARK   77  A    between atoms: _183  and  _186
REMARK   78  A    between atoms: _188  and  _190
REMARK   79  A    between atoms: _190  and  _191
REMARK   80  A    between atoms: _190  and  _193
REMARK   81  A    between atoms: _193  and  _194
REMARK   82  A    between atoms: _199  and  _201
REMARK   83  A    between atoms: _201  and  _202
REMARK   84  A    between atoms: _205  and  _207
REMARK   85  A    between atoms: _207  and  _208
REMARK   86  A    between atoms: _207  and  _210
REMARK   87  A    between atoms: _210  and  _211
REMARK   88  A    between atoms: _214  and  _216
REMARK   89  A    between atoms: _216  and  _217
REMARK   90  A    between atoms: _216  and  _219
REMARK   91  A    between atoms: _219  and  _220
REMARK   92  A    between atoms: _220  and  _221
REMARK   93  A    between atoms: _224  and  _226
REMARK   94  A    between atoms: _226  and  _227
REMARK   95  A    between atoms: _226  and  _229
REMARK   96  A    between atoms: _229  and  _230
REMARK   97  A    between atoms: _235  and  _236
REMARK   98  A    between atoms: _238  and  _240
REMARK   99  A    between atoms: _240  and  _241
REMARK  100  A    between atoms: _240  and  _243
REMARK  101  A    between atoms: _243  and  _244
REMARK  102  A    between atoms: _249  and  _251
REMARK  103  A    between atoms: _251  and  _252
REMARK  104  A    between atoms: _254  and  _256
REMARK  105  A    between atoms: _256  and  _257
REMARK  106  A    between atoms: _256  and  _259
REMARK  107  A    between atoms: _259  and  _260
REMARK  108  A    between atoms: _263  and  _265
REMARK  109  A    between atoms: _265  and  _266
REMARK  110  A    between atoms: _265  and  _268
REMARK  111  A    between atoms: _268  and  _269
REMARK  112  A    between atoms: _272  and  _274
REMARK  113  A    between atoms: _274  and  _275
REMARK  114  A    between atoms: _274  and  _277
REMARK  115  A    between atoms: _277  and  _278
REMARK  116  A    between atoms: _281  and  _283
REMARK  117  A    between atoms: _283  and  _284
REMARK  118  A    between atoms: _283  and  _286
REMARK  119  A    between atoms: _286  and  _287
REMARK  120  A    between atoms: _287  and  _288
REMARK  121  A    between atoms: _288  and  _289
REMARK  122  A    between atoms: _298  and  _300
REMARK  123  A    between atoms: _300  and  _301
REMARK                            x       y       z     vdW  Elec       q    Type
REMARK                         _______ _______ _______ _____ _____    ______ ____
ROOT
ATOM      1  CA  ILE A   1     -21.432  23.884  18.220  0.00  0.00    +0.133 C 
ENDROOT
BRANCH   1   2
ATOM      2  N   ILE A   1     -20.513  23.371  19.215  0.00  0.00    -0.239 NA
ATOM      3  H   ILE A   1     -19.946  22.528  18.993  0.00  0.00    +0.142 HD
ENDBRANCH   1   2
BRANCH   1   4
ATOM      4  C   ILE A   1     -22.703  23.057  18.268  0.00  0.00    +0.224 C 
ATOM      5  O   ILE A   1     -22.714  21.868  17.902  0.00  0.00    -0.287 OA
ENDBRANCH   1   4
BRANCH   1   6
ATOM      6  CB  ILE A   1     -20.775  23.872  16.820  0.00  0.00    +0.023 C 
ATOM      7  CG2 ILE A   1     -21.787  24.180  15.728  0.00  0.00    +0.002 C 
BRANCH   6   8
ATOM      8  CG1 ILE A   1     -19.592  24.856  16.752  0.00  0.00    +0.002 C 
ATOM      9  CD1 ILE A   1     -19.884  26.308  17.073  0.00  0.00    +0.000 C 
ENDBRANCH   6   8
ENDBRANCH   1   6
TORSDOF 4
REMARK  Name = ../refined-set-2016/4tte/4tte_pocket.pdb
REMARK  123 active torsions:
REMARK  status: ('A' for Active; 'I' for Inactive)
REMARK    1  A    between atoms: _1  and  _3
REMARK    2  A    between atoms: _3  and  _4
REMARK    3  A    between atoms: _3  and  _6
REMARK    4  A    between atoms: _6  and  _7
REMARK    5  A    between atoms: _13  and  _15
REMARK    6  A    between atoms: _15  and  _16
REMARK    7  A    between atoms: _15  and  _18
REMARK    8  A    between atoms: _18  and  _19
REMARK    9  A    between atoms: _19  and  _20
REMARK   10  A    between atoms: _20  and  _21
REMARK   11  A    between atoms: _30  and  _32
REMARK   12  A    between atoms: _32  and  _33
REMARK   13  A    between atoms: _32  and  _35
REMARK   14  A    between atoms: _38  and  _40
REMARK   15  A    between atoms: _40  and  _41
REMARK   16  A    between atoms: _40  and  _43
REMARK   17  A    between atoms: _43  and  _44
REMARK   18  A    between atoms: _50  and  _52
REMARK   19  A    between atoms: _52  and  _53
REMARK   20  A    between atoms: _52  and  _55
REMARK   21  A    between atoms: _55  and  _56
REMARK   22  A    between atoms: _59  and  _61
REMARK   23  A    between atoms: _61  and  _62
REMARK   24  A    between atoms: _61  and  _64
REMARK   25  A    between atoms: _64  and  _65
REMARK   26  A    between atoms: _65  and  _66
REMARK   27  A    between atoms: _66  and  _67
REMARK   28  A    between atoms: _67  and  _68
REMARK   29  A    between atoms: _73  and  _74
REMARK   30  A    between atoms: _79  and  _81
REMARK   31  A    between atoms: _81  and  _82
REMARK   32  A    between atoms: _81  and  _84
REMARK   33  A    between atoms: _87  and  _89
REMARK   34  A    between atoms: _89  and  _90
REMARK   35  A    between atoms: _89  and  _92
REMARK   36  A    between atoms: _92  and  _93
REMARK   37  A    between atoms: _96  and  _98
REMARK   38  A    between atoms: _98  and  _99
REMARK   39  A    between atoms: _98  and  _101
REMARK   40  A    between atoms: _101  and  _102
REMARK   41  A    between atoms: _102  and  _103
REMARK   42  A    between atoms: _106  and  _108
REMARK   43  A    between atoms: _108  and  _109
REMARK   44  A    between atoms: _108  and  _111
REMARK   45  A    between atoms: _114  and  _116
REMARK   46  A    between atoms: _116  and  _117
REMARK   47  A    between atoms: _116  and  _119
REMARK   48  A    between atoms: _119  and  _120
REMARK   49  A    between atoms: _123  and  _125
REMARK   50  A    between atoms: _125  and  _126
REMARK   51  A    between atoms: _125  and  _128
REMARK   52  A    between atoms: _128  and  _129
REMARK   53  A    between atoms: _134  and  _135
REMARK   54  A    between atoms: _137  and  _139
REMARK   55  A    between atoms: _139  and  _140
REMARK   56  A    between atoms: _139  and  _142
REMARK   57  A    between atoms: _142  and  _143
REMARK   58  A    between atoms: _146  and  _148
REMARK   59  A    between atoms: _148  and  _149
REMARK   60  A    between atoms: _148  and  _151
REMARK   61  A    between atoms: _151  and  _152
REMARK   62  A    between atoms: _152  and  _153
REMARK   63  A    between atoms: _155  and  _157
REMARK   64  A    between atoms: _157  and  _158
REMARK   65  A    between atoms: _157  and  _160
REMARK   66  A    between atoms: _160  and  _161
REMARK   67  A    between atoms: _164  and  _166
REMARK   68  A    between atoms: _166  and  _167
REMARK   69  A    between atoms: _166  and  _169
REMARK   70  A    between atoms: _169  and  _170
REMARK   71  A    between atoms: _172  and  _174
REMARK   72  A    between atoms: _174  and  _175
REMARK   73  A    between atoms: _174  and  _177
REMARK   74  A    between atoms: _177  and  _178
REMARK   75  A    between atoms: _181  and  _183
REMARK   76  A    between atoms: _183  and  _184
REMARK   77  A    between atoms: _183  and  _186
REMARK   78  A    between atoms: _188  and  _190
REMARK   79  A    between atoms: _190  and  _191
REMARK   80  A    between atoms: _190  and  _193
REMARK   81  A    between atoms: _193  and  _194
REMARK   82  A    between atoms: _199  and  _201
REMARK   83  A    between atoms: _201  and  _202
REMARK   84  A    between atoms: _205  and  _207
REMARK   85  A    between atoms: _207  and  _208
REMARK   86  A    between atoms: _207  and  _210
REMARK   87  A    between atoms: _210  and  _211
REMARK   88  A    between atoms: _214  and  _216
REMARK   89  A    between atoms: _216  and  _217
REMARK   90  A    between atoms: _216  and  _219
REMARK   91  A    between atoms: _219  and  _220
REMARK   92  A    between atoms: _220  and  _221
REMARK   93  A    between atoms: _224  and  _226
REMARK   94  A    between atoms: _226  and  _227
REMARK   95  A    between atoms: _226  and  _229
REMARK   96  A    between atoms: _229  and  _230
REMARK   97  A    between atoms: _235  and  _236
REMARK   98  A    between atoms: _238  and  _240
REMARK   99  A    between atoms: _240  and  _241
REMARK  100  A    between atoms: _240  and  _243
REMARK  101  A    between atoms: _243  and  _244
REMARK  102  A    between atoms: _249  and  _251
REMARK  103  A    between atoms: _251  and  _252
REMARK  104  A    between atoms: _254  and  _256
REMARK  105  A    between atoms: _256  and  _257
REMARK  106  A    between atoms: _256  and  _259
REMARK  107  A    between atoms: _259  and  _260
REMARK  108  A    between atoms: _263  and  _265
REMARK  109  A    between atoms: _265  and  _266
REMARK  110  A    between atoms: _265  and  _268
REMARK  111  A    between atoms: _268  and  _269
REMARK  112  A    between atoms: _272  and  _274
REMARK  113  A    between atoms: _274  and  _275
REMARK  114  A    between atoms: _274  and  _277
REMARK  115  A    between atoms: _277  and  _278
REMARK  116  A    between atoms: _281  and  _283
REMARK  117  A    between atoms: _283  and  _284
REMARK  118  A    between atoms: _283  and  _286
REMARK  119  A    between atoms: _286  and  _287
REMARK  120  A    between atoms: _287  and  _288
REMARK  121  A    between atoms: _288  and  _289
REMARK  122  A    between atoms: _298  and  _300
REMARK  123  A    between atoms: _300  and  _301
REMARK                            x       y       z     vdW  Elec       q    Type
REMARK                         _______ _______ _______ _____ _____    ______ ____
ROOT
ATOM      1  C   MET A   1     -23.398  22.923   8.378  0.00  0.00    +0.238 C 
ATOM      2  O   MET A   1     -22.313  23.430   8.665  0.00  0.00    -0.274 OA
ATOM      3  N   ASP A   2     -23.670  22.383   7.202  0.00  0.00    -0.298 N 
ATOM      4  H   ASP A   2     -24.603  21.944   7.066  0.00  0.00    +0.150 HD
ENDROOT
BRANCH   1   5
ATOM      5  CA  MET A   1     -24.509  22.868   9.412  0.00  0.00    +0.146 C 
BRANCH   5   6
ATOM      6  N   MET A   1     -23.897  22.763  10.724  0.00  0.00    -0.238 NA
ATOM      7  H   MET A   1     -22.986  23.230  10.905  0.00  0.00    +0.142 HD
ENDBRANCH   5   6
BRANCH   5   8
ATOM      8  CB  MET A   1     -25.422  24.101   9.359  0.00  0.00    +0.038 C 
BRANCH   8   9
ATOM      9  CG  MET A   1     -26.323  24.202   8.125  0.00  0.00    +0.060 C 
BRANCH   9  10
ATOM     10  SD  MET A   1     -27.322  22.743   7.745  0.00  0.00    -0.139 S 
ATOM     11  CE  MET A   1     -28.288  22.619   9.263  0.00  0.00    +0.069 C 
ENDBRANCH   9  10
ENDBRANCH   8   9
ENDBRANCH   5   8
ENDBRANCH   1   5
BRANCH   3  12
ATOM     12  CA  ASP A   2     -22.736  22.370   6.090  0.00  0.00    +0.148 C 
BRANCH  12  13
ATOM     13  C   ASP A   2     -23.549  22.254   4.812  0.00  0.00    +0.227 C 
ATOM     14  O   ASP A   2     -24.768  21.993   4.843  0.00  0.00    -0.286 OA
ENDBRANCH  12  13
BRANCH  12  15
ATOM     15  CB  ASP A   2     -21.781  21.180   6.199  0.00  0.00    +0.142 C 
BRANCH  15  16
ATOM     16  CG  ASP A   2     -22.502  19.861   6.038  0.00  0.00    +0.367 C 
ATOM     17  OD2 ASP A   2     -23.081  19.352   7.021  0.00  0.00    -0.246 OA
ATOM     18  OD1 ASP A   2     -22.562  19.349   4.916  0.00  0.00    -0.246 OA
ENDBRANCH  15  16
ENDBRANCH  12  15
ENDBRANCH   3  12
TORSDOF 9
REMARK  Name = ../refined-set-2016/4tte/4tte_pocket.pdb
REMARK  123 active torsions:
REMARK  status: ('A' for Active; 'I' for Inactive)
REMARK    1  A    between atoms: _1  and  _3
REMARK    2  A    between atoms: _3  and  _4
REMARK    3  A    between atoms: _3  and  _6
REMARK    4  A    between atoms: _6  and  _7
REMARK    5  A    between atoms: _13  and  _15
REMARK    6  A    between atoms: _15  and  _16
REMARK    7  A    between atoms: _15  and  _18
REMARK    8  A    between atoms: _18  and  _19
REMARK    9  A    between atoms: _19  and  _20
REMARK   10  A    between atoms: _20  and  _21
REMARK   11  A    between atoms: _30  and  _32
REMARK   12  A    between atoms: _32  and  _33
REMARK   13  A    between atoms: _32  and  _35
REMARK   14  A    between atoms: _38  and  _40
REMARK   15  A    between atoms: _40  and  _41
REMARK   16  A    between atoms: _40  and  _43
REMARK   17  A    between atoms: _43  and  _44
REMARK   18  A    between atoms: _50  and  _52
REMARK   19  A    between atoms: _52  and  _53
REMARK   20  A    between atoms: _52  and  _55
REMARK   21  A    between atoms: _55  and  _56
REMARK   22  A    between atoms: _59  and  _61
REMARK   23  A    between atoms: _61  and  _62
REMARK   24  A    between atoms: _61  and  _64
REMARK   25  A    between atoms: _64  and  _65
REMARK   26  A    between atoms: _65  and  _66
REMARK   27  A    between atoms: _66  and  _67
REMARK   28  A    between atoms: _67  and  _68
REMARK   29  A    between atoms: _73  and  _74
REMARK   30  A    between atoms: _79  and  _81
REMARK   31  A    between atoms: _81  and  _82
REMARK   32  A    between atoms: _81  and  _84
REMARK   33  A    between atoms: _87  and  _89
REMARK   34  A    between atoms: _89  and  _90
REMARK   35  A    between atoms: _89  and  _92
REMARK   36  A    between atoms: _92  and  _93
REMARK   37  A    between atoms: _96  and  _98
REMARK   38  A    between atoms: _98  and  _99
REMARK   39  A    between atoms: _98  and  _101
REMARK   40  A    between atoms: _101  and  _102
REMARK   41  A    between atoms: _102  and  _103
REMARK   42  A    between atoms: _106  and  _108
REMARK   43  A    between atoms: _108  and  _109
REMARK   44  A    between atoms: _108  and  _111
REMARK   45  A    between atoms: _114  and  _116
REMARK   46  A    between atoms: _116  and  _117
REMARK   47  A    between atoms: _116  and  _119
REMARK   48  A    between atoms: _119  and  _120
REMARK   49  A    between atoms: _123  and  _125
REMARK   50  A    between atoms: _125  and  _126
REMARK   51  A    between atoms: _125  and  _128
REMARK   52  A    between atoms: _128  and  _129
REMARK   53  A    between atoms: _134  and  _135
REMARK   54  A    between atoms: _137  and  _139
REMARK   55  A    between atoms: _139  and  _140
REMARK   56  A    between atoms: _139  and  _142
REMARK   57  A    between atoms: _142  and  _143
REMARK   58  A    between atoms: _146  and  _148
REMARK   59  A    between atoms: _148  and  _149
REMARK   60  A    between atoms: _148  and  _151
REMARK   61  A    between atoms: _151  and  _152
REMARK   62  A    between atoms: _152  and  _153
REMARK   63  A    between atoms: _155  and  _157
REMARK   64  A    between atoms: _157  and  _158
REMARK   65  A    between atoms: _157  and  _160
REMARK   66  A    between atoms: _160  and  _161
REMARK   67  A    between atoms: _164  and  _166
REMARK   68  A    between atoms: _166  and  _167
REMARK   69  A    between atoms: _166  and  _169
REMARK   70  A    between atoms: _169  and  _170
REMARK   71  A    between atoms: _172  and  _174
REMARK   72  A    between atoms: _174  and  _175
REMARK   73  A    between atoms: _174  and  _177
REMARK   74  A    between atoms: _177  and  _178
REMARK   75  A    between atoms: _181  and  _183
REMARK   76  A    between atoms: _183  and  _184
REMARK   77  A    between atoms: _183  and  _186
REMARK   78  A    between atoms: _188  and  _190
REMARK   79  A    between atoms: _190  and  _191
REMARK   80  A    between atoms: _190  and  _193
REMARK   81  A    between atoms: _193  and  _194
REMARK   82  A    between atoms: _199  and  _201
REMARK   83  A    between atoms: _201  and  _202
REMARK   84  A    between atoms: _205  and  _207
REMARK   85  A    between atoms: _207  and  _208
REMARK   86  A    between atoms: _207  and  _210
REMARK   87  A    between atoms: _210  and  _211
REMARK   88  A    between atoms: _214  and  _216
REMARK   89  A    between atoms: _216  and  _217
REMARK   90  A    between atoms: _216  and  _219
REMARK   91  A    between atoms: _219  and  _220
REMARK   92  A    between atoms: _220  and  _221
REMARK   93  A    between atoms: _224  and  _226
REMARK   94  A    between atoms: _226  and  _227
REMARK   95  A    between atoms: _226  and  _229
REMARK   96  A    between atoms: _229  and  _230
REMARK   97  A    between atoms: _235  and  _236
REMARK   98  A    between atoms: _238  and  _240
REMARK   99  A    between atoms: _240  and  _241
REMARK  100  A    between atoms: _240  and  _243
REMARK  101  A    between atoms: _243  and  _244
REMARK  102  A    between atoms: _249  and  _251
REMARK  103  A    between atoms: _251  and  _252
REMARK  104  A    between atoms: _254  and  _256
REMARK  105  A    between atoms: _256  and  _257
REMARK  106  A    between atoms: _256  and  _259
REMARK  107  A    between atoms: _259  and  _260
REMARK  108  A    between atoms: _263  and  _265
REMARK  109  A    between atoms: _265  and  _266
REMARK  110  A    between atoms: _265  and  _268
REMARK  111  A    between atoms: _268  and  _269
REMARK  112  A    between atoms: _272  and  _274
REMARK  113  A    between atoms: _274  and  _275
REMARK  114  A    between atoms: _274  and  _277
REMARK  115  A    between atoms: _277  and  _278
REMARK  116  A    between atoms: _281  and  _283
REMARK  117  A    between atoms: _283  and  _284
REMARK  118  A    between atoms: _283  and  _286
REMARK  119  A    between atoms: _286  and  _287
REMARK  120  A    between atoms: _287  and  _288
REMARK  121  A    between atoms: _288  and  _289
REMARK  122  A    between atoms: _298  and  _300
REMARK  123  A    between atoms: _300  and  _301
REMARK                            x       y       z     vdW  Elec       q    Type
REMARK                         _______ _______ _______ _____ _____    ______ ____
ROOT
ATOM      1  CA  SER A   1     -24.172  18.674   2.050  0.00  0.00    +0.163 C 
ENDROOT
BRANCH   1   2
ATOM      2  N   SER A   1     -23.600  19.979   2.363  0.00  0.00    -0.237 NA
ATOM      3  H   SER A   1     -22.716  20.032   2.908  0.00  0.00    +0.142 HD
ENDBRANCH   1   2
BRANCH   1   4
ATOM      4  C   SER A   1     -25.483  18.509   2.822  0.00  0.00    +0.227 C 
ATOM      5  O   SER A   1     -26.462  17.998   2.287  0.00  0.00    -0.287 OA
ENDBRANCH   1   4
BRANCH   1   6
ATOM      6  CB  SER A   1     -23.189  17.532   2.371  0.00  0.00    +0.162 C 
BRANCH   6   7
ATOM      7  OG  SER A   1     -22.920  17.451   3.766  0.00  0.00    -0.380 OA
ATOM      8  H   SER A   1     -22.522  18.303   4.074  0.00  0.00    +0.211 HD
ENDBRANCH   6   7
ENDBRANCH   1   6
TORSDOF 4
REMARK  Name = ../refined-set-2016/4tte/4tte_pocket.pdb
REMARK  123 active torsions:
REMARK  status: ('A' for Active; 'I' for Inactive)
REMARK    1  A    between atoms: _1  and  _3
REMARK    2  A    between atoms: _3  and  _4
REMARK    3  A    between atoms: _3  and  _6
REMARK    4  A    between atoms: _6  and  _7
REMARK    5  A    between atoms: _13  and  _15
REMARK    6  A    between atoms: _15  and  _16
REMARK    7  A    between atoms: _15  and  _18
REMARK    8  A    between atoms: _18  and  _19
REMARK    9  A    between atoms: _19  and  _20
REMARK   10  A    between atoms: _20  and  _21
REMARK   11  A    between atoms: _30  and  _32
REMARK   12  A    between atoms: _32  and  _33
REMARK   13  A    between atoms: _32  and  _35
REMARK   14  A    between atoms: _38  and  _40
REMARK   15  A    between atoms: _40  and  _41
REMARK   16  A    between atoms: _40  and  _43
REMARK   17  A    between atoms: _43  and  _44
REMARK   18  A    between atoms: _50  and  _52
REMARK   19  A    between atoms: _52  and  _53
REMARK   20  A    between atoms: _52  and  _55
REMARK   21  A    between atoms: _55  and  _56
REMARK   22  A    between atoms: _59  and  _61
REMARK   23  A    between atoms: _61  and  _62
REMARK   24  A    between atoms: _61  and  _64
REMARK   25  A    between atoms: _64  and  _65
REMARK   26  A    between atoms: _65  and  _66
REMARK   27  A    between atoms: _66  and  _67
REMARK   28  A    between atoms: _67  and  _68
REMARK   29  A    between atoms: _73  and  _74
REMARK   30  A    between atoms: _79  and  _81
REMARK   31  A    between atoms: _81  and  _82
REMARK   32  A    between atoms: _81  and  _84
REMARK   33  A    between atoms: _87  and  _89
REMARK   34  A    between atoms: _89  and  _90
REMARK   35  A    between atoms: _89  and  _92
REMARK   36  A    between atoms: _92  and  _93
REMARK   37  A    between atoms: _96  and  _98
REMARK   38  A    between atoms: _98  and  _99
REMARK   39  A    between atoms: _98  and  _101
REMARK   40  A    between atoms: _101  and  _102
REMARK   41  A    between atoms: _102  and  _103
REMARK   42  A    between atoms: _106  and  _108
REMARK   43  A    between atoms: _108  and  _109
REMARK   44  A    between atoms: _108  and  _111
REMARK   45  A    between atoms: _114  and  _116
REMARK   46  A    between atoms: _116  and  _117
REMARK   47  A    between atoms: _116  and  _119
REMARK   48  A    between atoms: _119  and  _120
REMARK   49  A    between atoms: _123  and  _125
REMARK   50  A    between atoms: _125  and  _126
REMARK   51  A    between atoms: _125  and  _128
REMARK   52  A    between atoms: _128  and  _129
REMARK   53  A    between atoms: _134  and  _135
REMARK   54  A    between atoms: _137  and  _139
REMARK   55  A    between atoms: _139  and  _140
REMARK   56  A    between atoms: _139  and  _142
REMARK   57  A    between atoms: _142  and  _143
REMARK   58  A    between atoms: _146  and  _148
REMARK   59  A    between atoms: _148  and  _149
REMARK   60  A    between atoms: _148  and  _151
REMARK   61  A    between atoms: _151  and  _152
REMARK   62  A    between atoms: _152  and  _153
REMARK   63  A    between atoms: _155  and  _157
REMARK   64  A    between atoms: _157  and  _158
REMARK   65  A    between atoms: _157  and  _160
REMARK   66  A    between atoms: _160  and  _161
REMARK   67  A    between atoms: _164  and  _166
REMARK   68  A    between atoms: _166  and  _167
REMARK   69  A    between atoms: _166  and  _169
REMARK   70  A    between atoms: _169  and  _170
REMARK   71  A    between atoms: _172  and  _174
REMARK   72  A    between atoms: _174  and  _175
REMARK   73  A    between atoms: _174  and  _177
REMARK   74  A    between atoms: _177  and  _178
REMARK   75  A    between atoms: _181  and  _183
REMARK   76  A    between atoms: _183  and  _184
REMARK   77  A    between atoms: _183  and  _186
REMARK   78  A    between atoms: _188  and  _190
REMARK   79  A    between atoms: _190  and  _191
REMARK   80  A    between atoms: _190  and  _193
REMARK   81  A    between atoms: _193  and  _194
REMARK   82  A    between atoms: _199  and  _201
REMARK   83  A    between atoms: _201  and  _202
REMARK   84  A    between atoms: _205  and  _207
REMARK   85  A    between atoms: _207  and  _208
REMARK   86  A    between atoms: _207  and  _210
REMARK   87  A    between atoms: _210  and  _211
REMARK   88  A    between atoms: _214  and  _216
REMARK   89  A    between atoms: _216  and  _217
REMARK   90  A    between atoms: _216  and  _219
REMARK   91  A    between atoms: _219  and  _220
REMARK   92  A    between atoms: _220  and  _221
REMARK   93  A    between atoms: _224  and  _226
REMARK   94  A    between atoms: _226  and  _227
REMARK   95  A    between atoms: _226  and  _229
REMARK   96  A    between atoms: _229  and  _230
REMARK   97  A    between atoms: _235  and  _236
REMARK   98  A    between atoms: _238  and  _240
REMARK   99  A    between atoms: _240  and  _241
REMARK  100  A    between atoms: _240  and  _243
REMARK  101  A    between atoms: _243  and  _244
REMARK  102  A    between atoms: _249  and  _251
REMARK  103  A    between atoms: _251  and  _252
REMARK  104  A    between atoms: _254  and  _256
REMARK  105  A    between atoms: _256  and  _257
REMARK  106  A    between atoms: _256  and  _259
REMARK  107  A    between atoms: _259  and  _260
REMARK  108  A    between atoms: _263  and  _265
REMARK  109  A    between atoms: _265  and  _266
REMARK  110  A    between atoms: _265  and  _268
REMARK  111  A    between atoms: _268  and  _269
REMARK  112  A    between atoms: _272  and  _274
REMARK  113  A    between atoms: _274  and  _275
REMARK  114  A    between atoms: _274  and  _277
REMARK  115  A    between atoms: _277  and  _278
REMARK  116  A    between atoms: _281  and  _283
REMARK  117  A    between atoms: _283  and  _284
REMARK  118  A    between atoms: _283  and  _286
REMARK  119  A    between atoms: _286  and  _287
REMARK  120  A    between atoms: _287  and  _288
REMARK  121  A    between atoms: _288  and  _289
REMARK  122  A    between atoms: _298  and  _300
REMARK  123  A    between atoms: _300  and  _301
REMARK                            x       y       z     vdW  Elec       q    Type
REMARK                         _______ _______ _______ _____ _____    ______ ____
ROOT
ATOM      1  C   ILE A   1     -21.795  28.801   8.893  0.00  0.00    +0.238 C 
ATOM      2  O   ILE A   1     -20.718  28.537   9.485  0.00  0.00    -0.274 OA
ATOM      3  N   CYS A   2     -22.112  30.028   8.525  0.00  0.00    -0.298 N 
ATOM      4  H   CYS A   2     -23.018  30.201   8.044  0.00  0.00    +0.150 HD
ENDROOT
BRANCH   1   5
ATOM      5  CA  ILE A   1     -22.797  27.701   8.547  0.00  0.00    +0.145 C 
BRANCH   5   6
ATOM      6  N   ILE A   1     -24.121  28.172   8.994  0.00  0.00    -0.238 NA
ATOM      7  H   ILE A   1     -24.907  28.225   8.315  0.00  0.00    +0.142 HD
ENDBRANCH   5   6
BRANCH   5   8
ATOM      8  CB  ILE A   1     -22.754  27.384   7.024  0.00  0.00    +0.025 C 
ATOM      9  CG2 ILE A   1     -21.296  27.213   6.574  0.00  0.00    +0.002 C 
BRANCH   8  10
ATOM     10  CG1 ILE A   1     -23.587  26.141   6.686  0.00  0.00    +0.002 C 
ATOM     11  CD1 ILE A   1     -23.736  25.874   5.201  0.00  0.00    +0.000 C 
ENDBRANCH   8  10
ENDBRANCH   5   8
ENDBRANCH   1   5
BRANCH   3  12
ATOM     12  CA  CYS A   2     -21.211  31.146   8.782  0.00  0.00    +0.149 C 
BRANCH  12  13
ATOM     13  C   CYS A   2     -21.018  31.432  10.276  0.00  0.00    +0.228 C 
ATOM     14  O   CYS A   2     -19.873  31.504  10.765  0.00  0.00    -0.286 OA
ENDBRANCH  12  13
BRANCH  12  15
ATOM     15  CB  CYS A   2     -21.668  32.397   8.072  0.00  0.00    +0.096 C 
ATOM     16  SG  CYS A   2     -20.601  33.828   8.261  0.00  0.00    -0.080 S 
ENDBRANCH  12  15
ENDBRANCH   3  12
TORSDOF 7
REMARK  Name = ../refined-set-2016/4tte/4tte_pocket.pdb
REMARK  123 active torsions:
REMARK  status: ('A' for Active; 'I' for Inactive)
REMARK    1  A    between atoms: _1  and  _3
REMARK    2  A    between atoms: _3  and  _4
REMARK    3  A    between atoms: _3  and  _6
REMARK    4  A    between atoms: _6  and  _7
REMARK    5  A    between atoms: _13  and  _15
REMARK    6  A    between atoms: _15  and  _16
REMARK    7  A    between atoms: _15  and  _18
REMARK    8  A    between atoms: _18  and  _19
REMARK    9  A    between atoms: _19  and  _20
REMARK   10  A    between atoms: _20  and  _21
REMARK   11  A    between atoms: _30  and  _32
REMARK   12  A    between atoms: _32  and  _33
REMARK   13  A    between atoms: _32  and  _35
REMARK   14  A    between atoms: _38  and  _40
REMARK   15  A    between atoms: _40  and  _41
REMARK   16  A    between atoms: _40  and  _43
REMARK   17  A    between atoms: _43  and  _44
REMARK   18  A    between atoms: _50  and  _52
REMARK   19  A    between atoms: _52  and  _53
REMARK   20  A    between atoms: _52  and  _55
REMARK   21  A    between atoms: _55  and  _56
REMARK   22  A    between atoms: _59  and  _61
REMARK   23  A    between atoms: _61  and  _62
REMARK   24  A    between atoms: _61  and  _64
REMARK   25  A    between atoms: _64  and  _65
REMARK   26  A    between atoms: _65  and  _66
REMARK   27  A    between atoms: _66  and  _67
REMARK   28  A    between atoms: _67  and  _68
REMARK   29  A    between atoms: _73  and  _74
REMARK   30  A    between atoms: _79  and  _81
REMARK   31  A    between atoms: _81  and  _82
REMARK   32  A    between atoms: _81  and  _84
REMARK   33  A    between atoms: _87  and  _89
REMARK   34  A    between atoms: _89  and  _90
REMARK   35  A    between atoms: _89  and  _92
REMARK   36  A    between atoms: _92  and  _93
REMARK   37  A    between atoms: _96  and  _98
REMARK   38  A    between atoms: _98  and  _99
REMARK   39  A    between atoms: _98  and  _101
REMARK   40  A    between atoms: _101  and  _102
REMARK   41  A    between atoms: _102  and  _103
REMARK   42  A    between atoms: _106  and  _108
REMARK   43  A    between atoms: _108  and  _109
REMARK   44  A    between atoms: _108  and  _111
REMARK   45  A    between atoms: _114  and  _116
REMARK   46  A    between atoms: _116  and  _117
REMARK   47  A    between atoms: _116  and  _119
REMARK   48  A    between atoms: _119  and  _120
REMARK   49  A    between atoms: _123  and  _125
REMARK   50  A    between atoms: _125  and  _126
REMARK   51  A    between atoms: _125  and  _128
REMARK   52  A    between atoms: _128  and  _129
REMARK   53  A    between atoms: _134  and  _135
REMARK   54  A    between atoms: _137  and  _139
REMARK   55  A    between atoms: _139  and  _140
REMARK   56  A    between atoms: _139  and  _142
REMARK   57  A    between atoms: _142  and  _143
REMARK   58  A    between atoms: _146  and  _148
REMARK   59  A    between atoms: _148  and  _149
REMARK   60  A    between atoms: _148  and  _151
REMARK   61  A    between atoms: _151  and  _152
REMARK   62  A    between atoms: _152  and  _153
REMARK   63  A    between atoms: _155  and  _157
REMARK   64  A    between atoms: _157  and  _158
REMARK   65  A    between atoms: _157  and  _160
REMARK   66  A    between atoms: _160  and  _161
REMARK   67  A    between atoms: _164  and  _166
REMARK   68  A    between atoms: _166  and  _167
REMARK   69  A    between atoms: _166  and  _169
REMARK   70  A    between atoms: _169  and  _170
REMARK   71  A    between atoms: _172  and  _174
REMARK   72  A    between atoms: _174  and  _175
REMARK   73  A    between atoms: _174  and  _177
REMARK   74  A    between atoms: _177  and  _178
REMARK   75  A    between atoms: _181  and  _183
REMARK   76  A    between atoms: _183  and  _184
REMARK   77  A    between atoms: _183  and  _186
REMARK   78  A    between atoms: _188  and  _190
REMARK   79  A    between atoms: _190  and  _191
REMARK   80  A    between atoms: _190  and  _193
REMARK   81  A    between atoms: _193  and  _194
REMARK   82  A    between atoms: _199  and  _201
REMARK   83  A    between atoms: _201  and  _202
REMARK   84  A    between atoms: _205  and  _207
REMARK   85  A    between atoms: _207  and  _208
REMARK   86  A    between atoms: _207  and  _210
REMARK   87  A    between atoms: _210  and  _211
REMARK   88  A    between atoms: _214  and  _216
REMARK   89  A    between atoms: _216  and  _217
REMARK   90  A    between atoms: _216  and  _219
REMARK   91  A    between atoms: _219  and  _220
REMARK   92  A    between atoms: _220  and  _221
REMARK   93  A    between atoms: _224  and  _226
REMARK   94  A    between atoms: _226  and  _227
REMARK   95  A    between atoms: _226  and  _229
REMARK   96  A    between atoms: _229  and  _230
REMARK   97  A    between atoms: _235  and  _236
REMARK   98  A    between atoms: _238  and  _240
REMARK   99  A    between atoms: _240  and  _241
REMARK  100  A    between atoms: _240  and  _243
REMARK  101  A    between atoms: _243  and  _244
REMARK  102  A    between atoms: _249  and  _251
REMARK  103  A    between atoms: _251  and  _252
REMARK  104  A    between atoms: _254  and  _256
REMARK  105  A    between atoms: _256  and  _257
REMARK  106  A    between atoms: _256  and  _259
REMARK  107  A    between atoms: _259  and  _260
REMARK  108  A    between atoms: _263  and  _265
REMARK  109  A    between atoms: _265  and  _266
REMARK  110  A    between atoms: _265  and  _268
REMARK  111  A    between atoms: _268  and  _269
REMARK  112  A    between atoms: _272  and  _274
REMARK  113  A    between atoms: _274  and  _275
REMARK  114  A    between atoms: _274  and  _277
REMARK  115  A    between atoms: _277  and  _278
REMARK  116  A    between atoms: _281  and  _283
REMARK  117  A    between atoms: _283  and  _284
REMARK  118  A    between atoms: _283  and  _286
REMARK  119  A    between atoms: _286  and  _287
REMARK  120  A    between atoms: _287  and  _288
REMARK  121  A    between atoms: _288  and  _289
REMARK  122  A    between atoms: _298  and  _300
REMARK  123  A    between atoms: _300  and  _301
REMARK                            x       y       z     vdW  Elec       q    Type
REMARK                         _______ _______ _______ _____ _____    ______ ____
ROOT
ATOM      1  CA  GLU A   4     -17.972  31.142  16.860  0.00  0.00    +0.149 C 
ENDROOT
BRANCH   1   4
ATOM      2  C   LEU A   3     -16.955  32.248  14.895  0.00  0.00    +0.241 C 
ATOM      3  O   LEU A   3     -16.011  32.676  15.538  0.00  0.00    -0.273 OA
ATOM      4  N   GLU A   4     -17.924  31.498  15.424  0.00  0.00    -0.297 N 
ATOM      5  H   GLU A   4     -18.679  31.148  14.800  0.00  0.00    +0.150 HD
BRANCH   2   6
ATOM      6  CA  LEU A   3     -17.058  32.545  13.399  0.00  0.00    +0.149 C 
BRANCH   6   9
ATOM      7  C   ALA A   2     -16.809  30.256  12.598  0.00  0.00    +0.241 C 
ATOM      8  O   ALA A   2     -15.673  30.163  13.096  0.00  0.00    -0.273 OA
ATOM      9  N   LEU A   3     -17.537  31.363  12.698  0.00  0.00    -0.297 N 
ATOM     10  H   LEU A   3     -18.480  31.386  12.261  0.00  0.00    +0.150 HD
BRANCH   7  11
ATOM     11  CA  ALA A   2     -17.416  29.074  11.852  0.00  0.00    +0.149 C 
ATOM     12  CB  ALA A   2     -17.199  29.169  10.343  0.00  0.00    +0.031 C 
BRANCH  11  15
ATOM     13  C   ASN A   1     -19.290  28.619  13.361  0.00  0.00    +0.239 C 
ATOM     14  O   ASN A   1     -18.521  28.427  14.288  0.00  0.00    -0.274 OA
ATOM     15  N   ALA A   2     -18.872  28.960  12.139  0.00  0.00    -0.297 N 
ATOM     16  H   ALA A   2     -19.565  29.146  11.387  0.00  0.00    +0.150 HD
BRANCH  13  17
ATOM     17  CA  ASN A   1     -20.827  28.436  13.546  0.00  0.00    +0.154 C 
BRANCH  17  18
ATOM     18  N   ASN A   1     -21.502  29.544  12.911  0.00  0.00    -0.238 NA
ATOM     19  H   ASN A   1     -22.202  29.341  12.169  0.00  0.00    +0.142 HD
ENDBRANCH  17  18
BRANCH  17  20
ATOM     20  CB  ASN A   1     -21.220  27.082  12.932  0.00  0.00    +0.111 C 
BRANCH  20  21
ATOM     21  CG  ASN A   1     -22.610  26.570  13.386  0.00  0.00    +0.221 C 
ATOM     22  ND2 ASN A   1     -23.195  27.222  14.340  0.00  0.00    -0.329 N 
ATOM     23 HD21 ASN A   1     -22.741  28.064  14.749  0.00  0.00    +0.145 HD
ATOM     24 HD22 ASN A   1     -24.118  26.904  14.697  0.00  0.00    +0.145 HD
ATOM     25  OD1 ASN A   1     -23.111  25.557  12.864  0.00  0.00    -0.275 OA
ENDBRANCH  20  21
ENDBRANCH  17  20
ENDBRANCH  13  17
ENDBRANCH  11  15
ENDBRANCH   7  11
ENDBRANCH   6   9
BRANCH   6  26
ATOM     26  CB  LEU A   3     -17.935  33.776  13.175  0.00  0.00    +0.029 C 
BRANCH  26  27
ATOM     27  CG  LEU A   3     -18.255  34.224  11.736  0.00  0.00    +0.002 C 
ATOM     28  CD2 LEU A   3     -18.985  35.542  11.673  0.00  0.00    +0.000 C 
ATOM     29  CD1 LEU A   3     -17.013  34.297  10.876  0.00  0.00    +0.000 C 
ENDBRANCH  26  27
ENDBRANCH   6  26
ENDBRANCH   2   6
ENDBRANCH   1   4
BRANCH   1  30
ATOM     30  C   GLU A   4     -16.867  30.173  17.234  0.00  0.00    +0.241 C 
ATOM     31  O   GLU A   4     -16.167  30.364  18.242  0.00  0.00    -0.273 OA
ATOM     32  N   TYR A   5     -16.710  29.141  16.426  0.00  0.00    -0.297 N 
ATOM     33  H   TYR A   5     -17.290  29.084  15.565  0.00  0.00    +0.150 HD
BRANCH  32  34
ATOM     34  CA  TYR A   5     -15.765  28.095  16.697  0.00  0.00    +0.153 C 
BRANCH  34  35
ATOM     35  C   TYR A   5     -14.316  28.531  16.429  0.00  0.00    +0.241 C 
ATOM     36  O   TYR A   5     -13.402  27.997  17.040  0.00  0.00    -0.273 OA
ATOM     37  N   ASN A   6     -14.119  29.492  15.531  0.00  0.00    -0.298 N 
ATOM     38  H   ASN A   6     -14.937  29.955  15.085  0.00  0.00    +0.150 HD
BRANCH  37  39
ATOM     39  CA  ASN A   6     -12.743  29.912  15.158  0.00  0.00    +0.146 C 
BRANCH  39  40
ATOM     40  C   ASN A   6     -12.528  31.393  15.369  0.00  0.00    +0.227 C 
ATOM     41  O   ASN A   6     -12.377  32.154  14.413  0.00  0.00    -0.286 OA
ENDBRANCH  39  40
BRANCH  39  42
ATOM     42  CB  ASN A   6     -12.467  29.527  13.686  0.00  0.00    +0.112 C 
BRANCH  42  43
ATOM     43  CG  ASN A   6     -12.753  28.086  13.388  0.00  0.00    +0.222 C 
ATOM     44  OD1 ASN A   6     -11.930  27.184  13.637  0.00  0.00    -0.275 OA
ATOM     45  ND2 ASN A   6     -13.926  27.828  12.831  0.00  0.00    -0.329 N 
ATOM     46 HD21 ASN A   6     -14.591  28.604  12.636  0.00  0.00    +0.145 HD
ATOM     47 HD22 ASN A   6     -14.183  26.850  12.588  0.00  0.00    +0.145 HD
ENDBRANCH  42  43
ENDBRANCH  39  42
ENDBRANCH  37  39
ENDBRANCH  34  35
BRANCH  34  48
ATOM     48  CB  TYR A   5     -16.064  26.842  15.913  0.00  0.00    +0.055 C 
BRANCH  48  49
ATOM     49  CG  TYR A   5     -15.298  25.660  16.448  0.00  0.00    -0.020 A 
ATOM     50  CD2 TYR A   5     -15.678  25.048  17.654  0.00  0.00    -0.001 A 
ATOM     51  CE2 TYR A   5     -14.970  23.980  18.166  0.00  0.00    +0.036 A 
ATOM     52  CZ  TYR A   5     -13.851  23.523  17.496  0.00  0.00    +0.134 A 
ATOM     53  CE1 TYR A   5     -13.444  24.115  16.322  0.00  0.00    +0.036 A 
ATOM     54  CD1 TYR A   5     -14.153  25.187  15.808  0.00  0.00    -0.001 A 
BRANCH  52  55
ATOM     55  OH  TYR A   5     -13.159  22.462  18.010  0.00  0.00    -0.506 OA
ATOM     56  HH  TYR A   5     -13.589  22.165  18.851  0.00  0.00    +0.292 HD
ENDBRANCH  52  55
ENDBRANCH  48  49
ENDBRANCH  34  48
ENDBRANCH  32  34
ENDBRANCH   1  30
BRANCH   1  57
ATOM     57  CB  GLU A   4     -19.335  30.507  17.227  0.00  0.00    +0.041 C 
BRANCH  57  58
ATOM     58  CG  GLU A   4     -19.521  30.168  18.713  0.00  0.00    +0.116 C 
BRANCH  58  59
ATOM     59  CD  GLU A   4     -20.849  29.455  19.018  0.00  0.00    +0.365 C 
ATOM     60  OE2 GLU A   4     -20.901  28.627  19.952  0.00  0.00    -0.246 OA
ATOM     61  OE1 GLU A   4     -21.835  29.697  18.308  0.00  0.00    -0.246 OA
ENDBRANCH  58  59
ENDBRANCH  57  58
ENDBRANCH   1  57
TORSDOF 24
REMARK  Name = ../refined-set-2016/4tte/4tte_pocket.pdb
REMARK  123 active torsions:
REMARK  status: ('A' for Active; 'I' for Inactive)
REMARK    1  A    between atoms: _1  and  _3
REMARK    2  A    between atoms: _3  and  _4
REMARK    3  A    between atoms: _3  and  _6
REMARK    4  A    between atoms: _6  and  _7
REMARK    5  A    between atoms: _13  and  _15
REMARK    6  A    between atoms: _15  and  _16
REMARK    7  A    between atoms: _15  and  _18
REMARK    8  A    between atoms: _18  and  _19
REMARK    9  A    between atoms: _19  and  _20
REMARK   10  A    between atoms: _20  and  _21
REMARK   11  A    between atoms: _30  and  _32
REMARK   12  A    between atoms: _32  and  _33
REMARK   13  A    between atoms: _32  and  _35
REMARK   14  A    between atoms: _38  and  _40
REMARK   15  A    between atoms: _40  and  _41
REMARK   16  A    between atoms: _40  and  _43
REMARK   17  A    between atoms: _43  and  _44
REMARK   18  A    between atoms: _50  and  _52
REMARK   19  A    between atoms: _52  and  _53
REMARK   20  A    between atoms: _52  and  _55
REMARK   21  A    between atoms: _55  and  _56
REMARK   22  A    between atoms: _59  and  _61
REMARK   23  A    between atoms: _61  and  _62
REMARK   24  A    between atoms: _61  and  _64
REMARK   25  A    between atoms: _64  and  _65
REMARK   26  A    between atoms: _65  and  _66
REMARK   27  A    between atoms: _66  and  _67
REMARK   28  A    between atoms: _67  and  _68
REMARK   29  A    between atoms: _73  and  _74
REMARK   30  A    between atoms: _79  and  _81
REMARK   31  A    between atoms: _81  and  _82
REMARK   32  A    between atoms: _81  and  _84
REMARK   33  A    between atoms: _87  and  _89
REMARK   34  A    between atoms: _89  and  _90
REMARK   35  A    between atoms: _89  and  _92
REMARK   36  A    between atoms: _92  and  _93
REMARK   37  A    between atoms: _96  and  _98
REMARK   38  A    between atoms: _98  and  _99
REMARK   39  A    between atoms: _98  and  _101
REMARK   40  A    between atoms: _101  and  _102
REMARK   41  A    between atoms: _102  and  _103
REMARK   42  A    between atoms: _106  and  _108
REMARK   43  A    between atoms: _108  and  _109
REMARK   44  A    between atoms: _108  and  _111
REMARK   45  A    between atoms: _114  and  _116
REMARK   46  A    between atoms: _116  and  _117
REMARK   47  A    between atoms: _116  and  _119
REMARK   48  A    between atoms: _119  and  _120
REMARK   49  A    between atoms: _123  and  _125
REMARK   50  A    between atoms: _125  and  _126
REMARK   51  A    between atoms: _125  and  _128
REMARK   52  A    between atoms: _128  and  _129
REMARK   53  A    between atoms: _134  and  _135
REMARK   54  A    between atoms: _137  and  _139
REMARK   55  A    between atoms: _139  and  _140
REMARK   56  A    between atoms: _139  and  _142
REMARK   57  A    between atoms: _142  and  _143
REMARK   58  A    between atoms: _146  and  _148
REMARK   59  A    between atoms: _148  and  _149
REMARK   60  A    between atoms: _148  and  _151
REMARK   61  A    between atoms: _151  and  _152
REMARK   62  A    between atoms: _152  and  _153
REMARK   63  A    between atoms: _155  and  _157
REMARK   64  A    between atoms: _157  and  _158
REMARK   65  A    between atoms: _157  and  _160
REMARK   66  A    between atoms: _160  and  _161
REMARK   67  A    between atoms: _164  and  _166
REMARK   68  A    between atoms: _166  and  _167
REMARK   69  A    between atoms: _166  and  _169
REMARK   70  A    between atoms: _169  and  _170
REMARK   71  A    between atoms: _172  and  _174
REMARK   72  A    between atoms: _174  and  _175
REMARK   73  A    between atoms: _174  and  _177
REMARK   74  A    between atoms: _177  and  _178
REMARK   75  A    between atoms: _181  and  _183
REMARK   76  A    between atoms: _183  and  _184
REMARK   77  A    between atoms: _183  and  _186
REMARK   78  A    between atoms: _188  and  _190
REMARK   79  A    between atoms: _190  and  _191
REMARK   80  A    between atoms: _190  and  _193
REMARK   81  A    between atoms: _193  and  _194
REMARK   82  A    between atoms: _199  and  _201
REMARK   83  A    between atoms: _201  and  _202
REMARK   84  A    between atoms: _205  and  _207
REMARK   85  A    between atoms: _207  and  _208
REMARK   86  A    between atoms: _207  and  _210
REMARK   87  A    between atoms: _210  and  _211
REMARK   88  A    between atoms: _214  and  _216
REMARK   89  A    between atoms: _216  and  _217
REMARK   90  A    between atoms: _216  and  _219
REMARK   91  A    between atoms: _219  and  _220
REMARK   92  A    between atoms: _220  and  _221
REMARK   93  A    between atoms: _224  and  _226
REMARK   94  A    between atoms: _226  and  _227
REMARK   95  A    between atoms: _226  and  _229
REMARK   96  A    between atoms: _229  and  _230
REMARK   97  A    between atoms: _235  and  _236
REMARK   98  A    between atoms: _238  and  _240
REMARK   99  A    between atoms: _240  and  _241
REMARK  100  A    between atoms: _240  and  _243
REMARK  101  A    between atoms: _243  and  _244
REMARK  102  A    between atoms: _249  and  _251
REMARK  103  A    between atoms: _251  and  _252
REMARK  104  A    between atoms: _254  and  _256
REMARK  105  A    between atoms: _256  and  _257
REMARK  106  A    between atoms: _256  and  _259
REMARK  107  A    between atoms: _259  and  _260
REMARK  108  A    between atoms: _263  and  _265
REMARK  109  A    between atoms: _265  and  _266
REMARK  110  A    between atoms: _265  and  _268
REMARK  111  A    between atoms: _268  and  _269
REMARK  112  A    between atoms: _272  and  _274
REMARK  113  A    between atoms: _274  and  _275
REMARK  114  A    between atoms: _274  and  _277
REMARK  115  A    between atoms: _277  and  _278
REMARK  116  A    between atoms: _281  and  _283
REMARK  117  A    between atoms: _283  and  _284
REMARK  118  A    between atoms: _283  and  _286
REMARK  119  A    between atoms: _286  and  _287
REMARK  120  A    between atoms: _287  and  _288
REMARK  121  A    between atoms: _288  and  _289
REMARK  122  A    between atoms: _298  and  _300
REMARK  123  A    between atoms: _300  and  _301
REMARK                            x       y       z     vdW  Elec       q    Type
REMARK                         _______ _______ _______ _____ _____    ______ ____
ROOT
ATOM      1  C   GLY A   1      -7.338  30.051  10.714  0.00  0.00    +0.240 C 
ATOM      2  N   ASP A   2      -7.561  30.621  11.901  0.00  0.00    -0.298 N 
ATOM      3  H   ASP A   2      -6.775  30.725  12.574  0.00  0.00    +0.150 HD
ATOM      4  O   GLY A   1      -8.241  29.822   9.884  0.00  0.00    -0.274 OA
ENDROOT
BRANCH   1   5
ATOM      5  CA  GLY A   1      -5.896  29.651  10.411  0.00  0.00    +0.169 C 
BRANCH   5   6
ATOM      6  N   GLY A   1      -4.982  30.729  10.711  0.00  0.00    -0.236 NA
ATOM      7  H   GLY A   1      -4.235  30.586  11.420  0.00  0.00    +0.142 HD
ENDBRANCH   5   6
ENDBRANCH   1   5
BRANCH   2   8
ATOM      8  CA  ASP A   2      -8.907  31.107  12.275  0.00  0.00    +0.148 C 
BRANCH   8   9
ATOM      9  C   ASP A   2      -9.334  32.265  11.388  0.00  0.00    +0.227 C 
ATOM     10  O   ASP A   2     -10.490  32.345  10.977  0.00  0.00    -0.286 OA
ENDBRANCH   8   9
BRANCH   8  11
ATOM     11  CB  ASP A   2      -8.989  31.549  13.737  0.00  0.00    +0.142 C 
BRANCH  11  12
ATOM     12  CG  ASP A   2      -9.040  30.388  14.712  0.00  0.00    +0.367 C 
ATOM     13  OD2 ASP A   2      -9.559  30.615  15.824  0.00  0.00    -0.246 OA
ATOM     14  OD1 ASP A   2      -8.639  29.254  14.355  0.00  0.00    -0.246 OA
ENDBRANCH  11  12
ENDBRANCH   8  11
ENDBRANCH   2   8
TORSDOF 6
REMARK  Name = ../refined-set-2016/4tte/4tte_pocket.pdb
REMARK  123 active torsions:
REMARK  status: ('A' for Active; 'I' for Inactive)
REMARK    1  A    between atoms: _1  and  _3
REMARK    2  A    between atoms: _3  and  _4
REMARK    3  A    between atoms: _3  and  _6
REMARK    4  A    between atoms: _6  and  _7
REMARK    5  A    between atoms: _13  and  _15
REMARK    6  A    between atoms: _15  and  _16
REMARK    7  A    between atoms: _15  and  _18
REMARK    8  A    between atoms: _18  and  _19
REMARK    9  A    between atoms: _19  and  _20
REMARK   10  A    between atoms: _20  and  _21
REMARK   11  A    between atoms: _30  and  _32
REMARK   12  A    between atoms: _32  and  _33
REMARK   13  A    between atoms: _32  and  _35
REMARK   14  A    between atoms: _38  and  _40
REMARK   15  A    between atoms: _40  and  _41
REMARK   16  A    between atoms: _40  and  _43
REMARK   17  A    between atoms: _43  and  _44
REMARK   18  A    between atoms: _50  and  _52
REMARK   19  A    between atoms: _52  and  _53
REMARK   20  A    between atoms: _52  and  _55
REMARK   21  A    between atoms: _55  and  _56
REMARK   22  A    between atoms: _59  and  _61
REMARK   23  A    between atoms: _61  and  _62
REMARK   24  A    between atoms: _61  and  _64
REMARK   25  A    between atoms: _64  and  _65
REMARK   26  A    between atoms: _65  and  _66
REMARK   27  A    between atoms: _66  and  _67
REMARK   28  A    between atoms: _67  and  _68
REMARK   29  A    between atoms: _73  and  _74
REMARK   30  A    between atoms: _79  and  _81
REMARK   31  A    between atoms: _81  and  _82
REMARK   32  A    between atoms: _81  and  _84
REMARK   33  A    between atoms: _87  and  _89
REMARK   34  A    between atoms: _89  and  _90
REMARK   35  A    between atoms: _89  and  _92
REMARK   36  A    between atoms: _92  and  _93
REMARK   37  A    between atoms: _96  and  _98
REMARK   38  A    between atoms: _98  and  _99
REMARK   39  A    between atoms: _98  and  _101
REMARK   40  A    between atoms: _101  and  _102
REMARK   41  A    between atoms: _102  and  _103
REMARK   42  A    between atoms: _106  and  _108
REMARK   43  A    between atoms: _108  and  _109
REMARK   44  A    between atoms: _108  and  _111
REMARK   45  A    between atoms: _114  and  _116
REMARK   46  A    between atoms: _116  and  _117
REMARK   47  A    between atoms: _116  and  _119
REMARK   48  A    between atoms: _119  and  _120
REMARK   49  A    between atoms: _123  and  _125
REMARK   50  A    between atoms: _125  and  _126
REMARK   51  A    between atoms: _125  and  _128
REMARK   52  A    between atoms: _128  and  _129
REMARK   53  A    between atoms: _134  and  _135
REMARK   54  A    between atoms: _137  and  _139
REMARK   55  A    between atoms: _139  and  _140
REMARK   56  A    between atoms: _139  and  _142
REMARK   57  A    between atoms: _142  and  _143
REMARK   58  A    between atoms: _146  and  _148
REMARK   59  A    between atoms: _148  and  _149
REMARK   60  A    between atoms: _148  and  _151
REMARK   61  A    between atoms: _151  and  _152
REMARK   62  A    between atoms: _152  and  _153
REMARK   63  A    between atoms: _155  and  _157
REMARK   64  A    between atoms: _157  and  _158
REMARK   65  A    between atoms: _157  and  _160
REMARK   66  A    between atoms: _160  and  _161
REMARK   67  A    between atoms: _164  and  _166
REMARK   68  A    between atoms: _166  and  _167
REMARK   69  A    between atoms: _166  and  _169
REMARK   70  A    between atoms: _169  and  _170
REMARK   71  A    between atoms: _172  and  _174
REMARK   72  A    between atoms: _174  and  _175
REMARK   73  A    between atoms: _174  and  _177
REMARK   74  A    between atoms: _177  and  _178
REMARK   75  A    between atoms: _181  and  _183
REMARK   76  A    between atoms: _183  and  _184
REMARK   77  A    between atoms: _183  and  _186
REMARK   78  A    between atoms: _188  and  _190
REMARK   79  A    between atoms: _190  and  _191
REMARK   80  A    between atoms: _190  and  _193
REMARK   81  A    between atoms: _193  and  _194
REMARK   82  A    between atoms: _199  and  _201
REMARK   83  A    between atoms: _201  and  _202
REMARK   84  A    between atoms: _205  and  _207
REMARK   85  A    between atoms: _207  and  _208
REMARK   86  A    between atoms: _207  and  _210
REMARK   87  A    between atoms: _210  and  _211
REMARK   88  A    between atoms: _214  and  _216
REMARK   89  A    between atoms: _216  and  _217
REMARK   90  A    between atoms: _216  and  _219
REMARK   91  A    between atoms: _219  and  _220
REMARK   92  A    between atoms: _220  and  _221
REMARK   93  A    between atoms: _224  and  _226
REMARK   94  A    between atoms: _226  and  _227
REMARK   95  A    between atoms: _226  and  _229
REMARK   96  A    between atoms: _229  and  _230
REMARK   97  A    between atoms: _235  and  _236
REMARK   98  A    between atoms: _238  and  _240
REMARK   99  A    between atoms: _240  and  _241
REMARK  100  A    between atoms: _240  and  _243
REMARK  101  A    between atoms: _243  and  _244
REMARK  102  A    between atoms: _249  and  _251
REMARK  103  A    between atoms: _251  and  _252
REMARK  104  A    between atoms: _254  and  _256
REMARK  105  A    between atoms: _256  and  _257
REMARK  106  A    between atoms: _256  and  _259
REMARK  107  A    between atoms: _259  and  _260
REMARK  108  A    between atoms: _263  and  _265
REMARK  109  A    between atoms: _265  and  _266
REMARK  110  A    between atoms: _265  and  _268
REMARK  111  A    between atoms: _268  and  _269
REMARK  112  A    between atoms: _272  and  _274
REMARK  113  A    between atoms: _274  and  _275
REMARK  114  A    between atoms: _274  and  _277
REMARK  115  A    between atoms: _277  and  _278
REMARK  116  A    between atoms: _281  and  _283
REMARK  117  A    between atoms: _283  and  _284
REMARK  118  A    between atoms: _283  and  _286
REMARK  119  A    between atoms: _286  and  _287
REMARK  120  A    between atoms: _287  and  _288
REMARK  121  A    between atoms: _288  and  _289
REMARK  122  A    between atoms: _298  and  _300
REMARK  123  A    between atoms: _300  and  _301
REMARK                            x       y       z     vdW  Elec       q    Type
REMARK                         _______ _______ _______ _____ _____    ______ ____
ROOT
ATOM      1  C   LEU A   1     -10.194  31.802   6.932  0.00  0.00    +0.238 C 
ATOM      2  N   ILE A   2     -10.453  30.885   7.854  0.00  0.00    -0.298 N 
ATOM      3  H   ILE A   2      -9.716  30.593   8.527  0.00  0.00    +0.150 HD
ATOM      4  O   LEU A   1     -11.019  32.149   6.070  0.00  0.00    -0.274 OA
ENDROOT
BRANCH   1   5
ATOM      5  CA  LEU A   1      -8.792  32.432   6.972  0.00  0.00    +0.145 C 
BRANCH   5   6
ATOM      6  N   LEU A   1      -8.508  32.921   8.315  0.00  0.00    -0.238 NA
ATOM      7  H   LEU A   1      -7.748  32.472   8.865  0.00  0.00    +0.142 HD
ENDBRANCH   5   6
BRANCH   5   8
ATOM      8  CB  LEU A   1      -7.780  31.426   6.527  0.00  0.00    +0.026 C 
BRANCH   8   9
ATOM      9  CG  LEU A   1      -7.956  30.786   5.155  0.00  0.00    +0.002 C 
ATOM     10  CD2 LEU A   1      -6.857  29.752   4.896  0.00  0.00    +0.000 C 
ATOM     11  CD1 LEU A   1      -8.003  31.852   4.077  0.00  0.00    +0.000 C 
ENDBRANCH   8   9
ENDBRANCH   5   8
ENDBRANCH   1   5
BRANCH   2  12
ATOM     12  CA  ILE A   2     -11.791  30.287   7.913  0.00  0.00    +0.137 C 
BRANCH  12  13
ATOM     13  CB  ILE A   2     -11.894  29.098   8.907  0.00  0.00    +0.026 C 
ATOM     14  CG2 ILE A   2     -11.787  29.549  10.318  0.00  0.00    +0.002 C 
BRANCH  13  15
ATOM     15  CG1 ILE A   2     -13.239  28.375   8.725  0.00  0.00    +0.002 C 
ATOM     16  CD1 ILE A   2     -13.174  26.887   9.044  0.00  0.00    +0.000 C 
ENDBRANCH  13  15
ENDBRANCH  12  13
BRANCH  12  17
ATOM     17  C   ILE A   2     -12.882  31.336   8.122  0.00  0.00    +0.227 C 
ATOM     18  O   ILE A   2     -13.952  31.239   7.471  0.00  0.00    -0.286 OA
ENDBRANCH  12  17
ENDBRANCH   2  12
TORSDOF 8
REMARK  Name = ../refined-set-2016/4tte/4tte_pocket.pdb
REMARK  123 active torsions:
REMARK  status: ('A' for Active; 'I' for Inactive)
REMARK    1  A    between atoms: _1  and  _3
REMARK    2  A    between atoms: _3  and  _4
REMARK    3  A    between atoms: _3  and  _6
REMARK    4  A    between atoms: _6  and  _7
REMARK    5  A    between atoms: _13  and  _15
REMARK    6  A    between atoms: _15  and  _16
REMARK    7  A    between atoms: _15  and  _18
REMARK    8  A    between atoms: _18  and  _19
REMARK    9  A    between atoms: _19  and  _20
REMARK   10  A    between atoms: _20  and  _21
REMARK   11  A    between atoms: _30  and  _32
REMARK   12  A    between atoms: _32  and  _33
REMARK   13  A    between atoms: _32  and  _35
REMARK   14  A    between atoms: _38  and  _40
REMARK   15  A    between atoms: _40  and  _41
REMARK   16  A    between atoms: _40  and  _43
REMARK   17  A    between atoms: _43  and  _44
REMARK   18  A    between atoms: _50  and  _52
REMARK   19  A    between atoms: _52  and  _53
REMARK   20  A    between atoms: _52  and  _55
REMARK   21  A    between atoms: _55  and  _56
REMARK   22  A    between atoms: _59  and  _61
REMARK   23  A    between atoms: _61  and  _62
REMARK   24  A    between atoms: _61  and  _64
REMARK   25  A    between atoms: _64  and  _65
REMARK   26  A    between atoms: _65  and  _66
REMARK   27  A    between atoms: _66  and  _67
REMARK   28  A    between atoms: _67  and  _68
REMARK   29  A    between atoms: _73  and  _74
REMARK   30  A    between atoms: _79  and  _81
REMARK   31  A    between atoms: _81  and  _82
REMARK   32  A    between atoms: _81  and  _84
REMARK   33  A    between atoms: _87  and  _89
REMARK   34  A    between atoms: _89  and  _90
REMARK   35  A    between atoms: _89  and  _92
REMARK   36  A    between atoms: _92  and  _93
REMARK   37  A    between atoms: _96  and  _98
REMARK   38  A    between atoms: _98  and  _99
REMARK   39  A    between atoms: _98  and  _101
REMARK   40  A    between atoms: _101  and  _102
REMARK   41  A    between atoms: _102  and  _103
REMARK   42  A    between atoms: _106  and  _108
REMARK   43  A    between atoms: _108  and  _109
REMARK   44  A    between atoms: _108  and  _111
REMARK   45  A    between atoms: _114  and  _116
REMARK   46  A    between atoms: _116  and  _117
REMARK   47  A    between atoms: _116  and  _119
REMARK   48  A    between atoms: _119  and  _120
REMARK   49  A    between atoms: _123  and  _125
REMARK   50  A    between atoms: _125  and  _126
REMARK   51  A    between atoms: _125  and  _128
REMARK   52  A    between atoms: _128  and  _129
REMARK   53  A    between atoms: _134  and  _135
REMARK   54  A    between atoms: _137  and  _139
REMARK   55  A    between atoms: _139  and  _140
REMARK   56  A    between atoms: _139  and  _142
REMARK   57  A    between atoms: _142  and  _143
REMARK   58  A    between atoms: _146  and  _148
REMARK   59  A    between atoms: _148  and  _149
REMARK   60  A    between atoms: _148  and  _151
REMARK   61  A    between atoms: _151  and  _152
REMARK   62  A    between atoms: _152  and  _153
REMARK   63  A    between atoms: _155  and  _157
REMARK   64  A    between atoms: _157  and  _158
REMARK   65  A    between atoms: _157  and  _160
REMARK   66  A    between atoms: _160  and  _161
REMARK   67  A    between atoms: _164  and  _166
REMARK   68  A    between atoms: _166  and  _167
REMARK   69  A    between atoms: _166  and  _169
REMARK   70  A    between atoms: _169  and  _170
REMARK   71  A    between atoms: _172  and  _174
REMARK   72  A    between atoms: _174  and  _175
REMARK   73  A    between atoms: _174  and  _177
REMARK   74  A    between atoms: _177  and  _178
REMARK   75  A    between atoms: _181  and  _183
REMARK   76  A    between atoms: _183  and  _184
REMARK   77  A    between atoms: _183  and  _186
REMARK   78  A    between atoms: _188  and  _190
REMARK   79  A    between atoms: _190  and  _191
REMARK   80  A    between atoms: _190  and  _193
REMARK   81  A    between atoms: _193  and  _194
REMARK   82  A    between atoms: _199  and  _201
REMARK   83  A    between atoms: _201  and  _202
REMARK   84  A    between atoms: _205  and  _207
REMARK   85  A    between atoms: _207  and  _208
REMARK   86  A    between atoms: _207  and  _210
REMARK   87  A    between atoms: _210  and  _211
REMARK   88  A    between atoms: _214  and  _216
REMARK   89  A    between atoms: _216  and  _217
REMARK   90  A    between atoms: _216  and  _219
REMARK   91  A    between atoms: _219  and  _220
REMARK   92  A    between atoms: _220  and  _221
REMARK   93  A    between atoms: _224  and  _226
REMARK   94  A    between atoms: _226  and  _227
REMARK   95  A    between atoms: _226  and  _229
REMARK   96  A    between atoms: _229  and  _230
REMARK   97  A    between atoms: _235  and  _236
REMARK   98  A    between atoms: _238  and  _240
REMARK   99  A    between atoms: _240  and  _241
REMARK  100  A    between atoms: _240  and  _243
REMARK  101  A    between atoms: _243  and  _244
REMARK  102  A    between atoms: _249  and  _251
REMARK  103  A    between atoms: _251  and  _252
REMARK  104  A    between atoms: _254  and  _256
REMARK  105  A    between atoms: _256  and  _257
REMARK  106  A    between atoms: _256  and  _259
REMARK  107  A    between atoms: _259  and  _260
REMARK  108  A    between atoms: _263  and  _265
REMARK  109  A    between atoms: _265  and  _266
REMARK  110  A    between atoms: _265  and  _268
REMARK  111  A    between atoms: _268  and  _269
REMARK  112  A    between atoms: _272  and  _274
REMARK  113  A    between atoms: _274  and  _275
REMARK  114  A    between atoms: _274  and  _277
REMARK  115  A    between atoms: _277  and  _278
REMARK  116  A    between atoms: _281  and  _283
REMARK  117  A    between atoms: _283  and  _284
REMARK  118  A    between atoms: _283  and  _286
REMARK  119  A    between atoms: _286  and  _287
REMARK  120  A    between atoms: _287  and  _288
REMARK  121  A    between atoms: _288  and  _289
REMARK  122  A    between atoms: _298  and  _300
REMARK  123  A    between atoms: _300  and  _301
REMARK                            x       y       z     vdW  Elec       q    Type
REMARK                         _______ _______ _______ _____ _____    ______ ____
ROOT
ATOM      1  CB  ARG A   1     -13.517  30.895   3.875  0.00  0.00    +0.030 C 
ENDROOT
BRANCH   1   2
ATOM      2  CA  ARG A   1     -14.181  32.247   3.888  0.00  0.00    +0.145 C 
BRANCH   2   3
ATOM      3  C   ARG A   1     -15.663  32.103   4.285  0.00  0.00    +0.238 C 
ATOM      4  N   ALA A   2     -15.911  32.037   5.583  0.00  0.00    -0.298 N 
ATOM      5  H   ALA A   2     -15.115  32.070   6.251  0.00  0.00    +0.150 HD
ATOM      6  O   ARG A   1     -16.538  32.085   3.418  0.00  0.00    -0.274 OA
BRANCH   4   7
ATOM      7  CA  ALA A   2     -17.288  31.918   6.112  0.00  0.00    +0.137 C 
ATOM      8  CB  ALA A   2     -17.270  31.700   7.627  0.00  0.00    +0.030 C 
BRANCH   7   9
ATOM      9  C   ALA A   2     -18.089  33.146   5.751  0.00  0.00    +0.227 C 
ATOM     10  O   ALA A   2     -19.231  33.000   5.288  0.00  0.00    -0.286 OA
ENDBRANCH   7   9
ENDBRANCH   4   7
ENDBRANCH   2   3
BRANCH   2  11
ATOM     11  N   ARG A   1     -13.501  33.142   4.823  0.00  0.00    -0.238 NA
ATOM     12  H   ARG A   1     -12.771  32.748   5.450  0.00  0.00    +0.142 HD
ENDBRANCH   2  11
ENDBRANCH   1   2
BRANCH   1  13
ATOM     13  CG  ARG A   1     -12.152  30.932   3.198  0.00  0.00    +0.045 C 
BRANCH  13  14
ATOM     14  CD  ARG A   1     -11.426  29.644   3.381  0.00  0.00    +0.174 C 
BRANCH  14  15
ATOM     15  NE  ARG A   1     -10.302  29.547   2.458  0.00  0.00    -0.265 N 
ATOM     16  CZ  ARG A   1      -9.408  28.573   2.461  0.00  0.00    +0.342 C 
ATOM     17  NH2 ARG A   1      -9.463  27.612   3.360  0.00  0.00    -0.292 N 
ATOM     18 HH21 ARG A   1     -10.216  27.614   4.078  0.00  0.00    +0.255 HD
ATOM     19 HH22 ARG A   1      -8.754  26.851   3.352  0.00  0.00    +0.255 HD
ATOM     20  NH1 ARG A   1      -8.454  28.566   1.559  0.00  0.00    -0.292 N 
ATOM     21 HH11 ARG A   1      -7.747  27.803   1.555  0.00  0.00    +0.255 HD
ATOM     22 HH12 ARG A   1      -8.405  29.324   0.848  0.00  0.00    +0.255 HD
ATOM     23  HE  ARG A   1     -10.196  30.298   1.746  0.00  0.00    +0.259 HD
ENDBRANCH  14  15
ENDBRANCH  13  14
ENDBRANCH   1  13
TORSDOF 8
REMARK  Name = ../refined-set-2016/4tte/4tte_pocket.pdb
REMARK  123 active torsions:
REMARK  status: ('A' for Active; 'I' for Inactive)
REMARK    1  A    between atoms: _1  and  _3
REMARK    2  A    between atoms: _3  and  _4
REMARK    3  A    between atoms: _3  and  _6
REMARK    4  A    between atoms: _6  and  _7
REMARK    5  A    between atoms: _13  and  _15
REMARK    6  A    between atoms: _15  and  _16
REMARK    7  A    between atoms: _15  and  _18
REMARK    8  A    between atoms: _18  and  _19
REMARK    9  A    between atoms: _19  and  _20
REMARK   10  A    between atoms: _20  and  _21
REMARK   11  A    between atoms: _30  and  _32
REMARK   12  A    between atoms: _32  and  _33
REMARK   13  A    between atoms: _32  and  _35
REMARK   14  A    between atoms: _38  and  _40
REMARK   15  A    between atoms: _40  and  _41
REMARK   16  A    between atoms: _40  and  _43
REMARK   17  A    between atoms: _43  and  _44
REMARK   18  A    between atoms: _50  and  _52
REMARK   19  A    between atoms: _52  and  _53
REMARK   20  A    between atoms: _52  and  _55
REMARK   21  A    between atoms: _55  and  _56
REMARK   22  A    between atoms: _59  and  _61
REMARK   23  A    between atoms: _61  and  _62
REMARK   24  A    between atoms: _61  and  _64
REMARK   25  A    between atoms: _64  and  _65
REMARK   26  A    between atoms: _65  and  _66
REMARK   27  A    between atoms: _66  and  _67
REMARK   28  A    between atoms: _67  and  _68
REMARK   29  A    between atoms: _73  and  _74
REMARK   30  A    between atoms: _79  and  _81
REMARK   31  A    between atoms: _81  and  _82
REMARK   32  A    between atoms: _81  and  _84
REMARK   33  A    between atoms: _87  and  _89
REMARK   34  A    between atoms: _89  and  _90
REMARK   35  A    between atoms: _89  and  _92
REMARK   36  A    between atoms: _92  and  _93
REMARK   37  A    between atoms: _96  and  _98
REMARK   38  A    between atoms: _98  and  _99
REMARK   39  A    between atoms: _98  and  _101
REMARK   40  A    between atoms: _101  and  _102
REMARK   41  A    between atoms: _102  and  _103
REMARK   42  A    between atoms: _106  and  _108
REMARK   43  A    between atoms: _108  and  _109
REMARK   44  A    between atoms: _108  and  _111
REMARK   45  A    between atoms: _114  and  _116
REMARK   46  A    between atoms: _116  and  _117
REMARK   47  A    between atoms: _116  and  _119
REMARK   48  A    between atoms: _119  and  _120
REMARK   49  A    between atoms: _123  and  _125
REMARK   50  A    between atoms: _125  and  _126
REMARK   51  A    between atoms: _125  and  _128
REMARK   52  A    between atoms: _128  and  _129
REMARK   53  A    between atoms: _134  and  _135
REMARK   54  A    between atoms: _137  and  _139
REMARK   55  A    between atoms: _139  and  _140
REMARK   56  A    between atoms: _139  and  _142
REMARK   57  A    between atoms: _142  and  _143
REMARK   58  A    between atoms: _146  and  _148
REMARK   59  A    between atoms: _148  and  _149
REMARK   60  A    between atoms: _148  and  _151
REMARK   61  A    between atoms: _151  and  _152
REMARK   62  A    between atoms: _152  and  _153
REMARK   63  A    between atoms: _155  and  _157
REMARK   64  A    between atoms: _157  and  _158
REMARK   65  A    between atoms: _157  and  _160
REMARK   66  A    between atoms: _160  and  _161
REMARK   67  A    between atoms: _164  and  _166
REMARK   68  A    between atoms: _166  and  _167
REMARK   69  A    between atoms: _166  and  _169
REMARK   70  A    between atoms: _169  and  _170
REMARK   71  A    between atoms: _172  and  _174
REMARK   72  A    between atoms: _174  and  _175
REMARK   73  A    between atoms: _174  and  _177
REMARK   74  A    between atoms: _177  and  _178
REMARK   75  A    between atoms: _181  and  _183
REMARK   76  A    between atoms: _183  and  _184
REMARK   77  A    between atoms: _183  and  _186
REMARK   78  A    between atoms: _188  and  _190
REMARK   79  A    between atoms: _190  and  _191
REMARK   80  A    between atoms: _190  and  _193
REMARK   81  A    between atoms: _193  and  _194
REMARK   82  A    between atoms: _199  and  _201
REMARK   83  A    between atoms: _201  and  _202
REMARK   84  A    between atoms: _205  and  _207
REMARK   85  A    between atoms: _207  and  _208
REMARK   86  A    between atoms: _207  and  _210
REMARK   87  A    between atoms: _210  and  _211
REMARK   88  A    between atoms: _214  and  _216
REMARK   89  A    between atoms: _216  and  _217
REMARK   90  A    between atoms: _216  and  _219
REMARK   91  A    between atoms: _219  and  _220
REMARK   92  A    between atoms: _220  and  _221
REMARK   93  A    between atoms: _224  and  _226
REMARK   94  A    between atoms: _226  and  _227
REMARK   95  A    between atoms: _226  and  _229
REMARK   96  A    between atoms: _229  and  _230
REMARK   97  A    between atoms: _235  and  _236
REMARK   98  A    between atoms: _238  and  _240
REMARK   99  A    between atoms: _240  and  _241
REMARK  100  A    between atoms: _240  and  _243
REMARK  101  A    between atoms: _243  and  _244
REMARK  102  A    between atoms: _249  and  _251
REMARK  103  A    between atoms: _251  and  _252
REMARK  104  A    between atoms: _254  and  _256
REMARK  105  A    between atoms: _256  and  _257
REMARK  106  A    between atoms: _256  and  _259
REMARK  107  A    between atoms: _259  and  _260
REMARK  108  A    between atoms: _263  and  _265
REMARK  109  A    between atoms: _265  and  _266
REMARK  110  A    between atoms: _265  and  _268
REMARK  111  A    between atoms: _268  and  _269
REMARK  112  A    between atoms: _272  and  _274
REMARK  113  A    between atoms: _274  and  _275
REMARK  114  A    between atoms: _274  and  _277
REMARK  115  A    between atoms: _277  and  _278
REMARK  116  A    between atoms: _281  and  _283
REMARK  117  A    between atoms: _283  and  _284
REMARK  118  A    between atoms: _283  and  _286
REMARK  119  A    between atoms: _286  and  _287
REMARK  120  A    between atoms: _287  and  _288
REMARK  121  A    between atoms: _288  and  _289
REMARK  122  A    between atoms: _298  and  _300
REMARK  123  A    between atoms: _300  and  _301
REMARK                            x       y       z     vdW  Elec       q    Type
REMARK                         _______ _______ _______ _____ _____    ______ ____
ROOT
ATOM      1  O   HOH     1      -9.643  28.898  17.736  0.00  0.00    +0.000 OA
ENDROOT
TORSDOF 0
REMARK  Name = ../refined-set-2016/4tte/4tte_pocket.pdb
REMARK  123 active torsions:
REMARK  status: ('A' for Active; 'I' for Inactive)
REMARK    1  A    between atoms: _1  and  _3
REMARK    2  A    between atoms: _3  and  _4
REMARK    3  A    between atoms: _3  and  _6
REMARK    4  A    between atoms: _6  and  _7
REMARK    5  A    between atoms: _13  and  _15
REMARK    6  A    between atoms: _15  and  _16
REMARK    7  A    between atoms: _15  and  _18
REMARK    8  A    between atoms: _18  and  _19
REMARK    9  A    between atoms: _19  and  _20
REMARK   10  A    between atoms: _20  and  _21
REMARK   11  A    between atoms: _30  and  _32
REMARK   12  A    between atoms: _32  and  _33
REMARK   13  A    between atoms: _32  and  _35
REMARK   14  A    between atoms: _38  and  _40
REMARK   15  A    between atoms: _40  and  _41
REMARK   16  A    between atoms: _40  and  _43
REMARK   17  A    between atoms: _43  and  _44
REMARK   18  A    between atoms: _50  and  _52
REMARK   19  A    between atoms: _52  and  _53
REMARK   20  A    between atoms: _52  and  _55
REMARK   21  A    between atoms: _55  and  _56
REMARK   22  A    between atoms: _59  and  _61
REMARK   23  A    between atoms: _61  and  _62
REMARK   24  A    between atoms: _61  and  _64
REMARK   25  A    between atoms: _64  and  _65
REMARK   26  A    between atoms: _65  and  _66
REMARK   27  A    between atoms: _66  and  _67
REMARK   28  A    between atoms: _67  and  _68
REMARK   29  A    between atoms: _73  and  _74
REMARK   30  A    between atoms: _79  and  _81
REMARK   31  A    between atoms: _81  and  _82
REMARK   32  A    between atoms: _81  and  _84
REMARK   33  A    between atoms: _87  and  _89
REMARK   34  A    between atoms: _89  and  _90
REMARK   35  A    between atoms: _89  and  _92
REMARK   36  A    between atoms: _92  and  _93
REMARK   37  A    between atoms: _96  and  _98
REMARK   38  A    between atoms: _98  and  _99
REMARK   39  A    between atoms: _98  and  _101
REMARK   40  A    between atoms: _101  and  _102
REMARK   41  A    between atoms: _102  and  _103
REMARK   42  A    between atoms: _106  and  _108
REMARK   43  A    between atoms: _108  and  _109
REMARK   44  A    between atoms: _108  and  _111
REMARK   45  A    between atoms: _114  and  _116
REMARK   46  A    between atoms: _116  and  _117
REMARK   47  A    between atoms: _116  and  _119
REMARK   48  A    between atoms: _119  and  _120
REMARK   49  A    between atoms: _123  and  _125
REMARK   50  A    between atoms: _125  and  _126
REMARK   51  A    between atoms: _125  and  _128
REMARK   52  A    between atoms: _128  and  _129
REMARK   53  A    between atoms: _134  and  _135
REMARK   54  A    between atoms: _137  and  _139
REMARK   55  A    between atoms: _139  and  _140
REMARK   56  A    between atoms: _139  and  _142
REMARK   57  A    between atoms: _142  and  _143
REMARK   58  A    between atoms: _146  and  _148
REMARK   59  A    between atoms: _148  and  _149
REMARK   60  A    between atoms: _148  and  _151
REMARK   61  A    between atoms: _151  and  _152
REMARK   62  A    between atoms: _152  and  _153
REMARK   63  A    between atoms: _155  and  _157
REMARK   64  A    between atoms: _157  and  _158
REMARK   65  A    between atoms: _157  and  _160
REMARK   66  A    between atoms: _160  and  _161
REMARK   67  A    between atoms: _164  and  _166
REMARK   68  A    between atoms: _166  and  _167
REMARK   69  A    between atoms: _166  and  _169
REMARK   70  A    between atoms: _169  and  _170
REMARK   71  A    between atoms: _172  and  _174
REMARK   72  A    between atoms: _174  and  _175
REMARK   73  A    between atoms: _174  and  _177
REMARK   74  A    between atoms: _177  and  _178
REMARK   75  A    between atoms: _181  and  _183
REMARK   76  A    between atoms: _183  and  _184
REMARK   77  A    between atoms: _183  and  _186
REMARK   78  A    between atoms: _188  and  _190
REMARK   79  A    between atoms: _190  and  _191
REMARK   80  A    between atoms: _190  and  _193
REMARK   81  A    between atoms: _193  and  _194
REMARK   82  A    between atoms: _199  and  _201
REMARK   83  A    between atoms: _201  and  _202
REMARK   84  A    between atoms: _205  and  _207
REMARK   85  A    between atoms: _207  and  _208
REMARK   86  A    between atoms: _207  and  _210
REMARK   87  A    between atoms: _210  and  _211
REMARK   88  A    between atoms: _214  and  _216
REMARK   89  A    between atoms: _216  and  _217
REMARK   90  A    between atoms: _216  and  _219
REMARK   91  A    between atoms: _219  and  _220
REMARK   92  A    between atoms: _220  and  _221
REMARK   93  A    between atoms: _224  and  _226
REMARK   94  A    between atoms: _226  and  _227
REMARK   95  A    between atoms: _226  and  _229
REMARK   96  A    between atoms: _229  and  _230
REMARK   97  A    between atoms: _235  and  _236
REMARK   98  A    between atoms: _238  and  _240
REMARK   99  A    between atoms: _240  and  _241
REMARK  100  A    between atoms: _240  and  _243
REMARK  101  A    between atoms: _243  and  _244
REMARK  102  A    between atoms: _249  and  _251
REMARK  103  A    between atoms: _251  and  _252
REMARK  104  A    between atoms: _254  and  _256
REMARK  105  A    between atoms: _256  and  _257
REMARK  106  A    between atoms: _256  and  _259
REMARK  107  A    between atoms: _259  and  _260
REMARK  108  A    between atoms: _263  and  _265
REMARK  109  A    between atoms: _265  and  _266
REMARK  110  A    between atoms: _265  and  _268
REMARK  111  A    between atoms: _268  and  _269
REMARK  112  A    between atoms: _272  and  _274
REMARK  113  A    between atoms: _274  and  _275
REMARK  114  A    between atoms: _274  and  _277
REMARK  115  A    between atoms: _277  and  _278
REMARK  116  A    between atoms: _281  and  _283
REMARK  117  A    between atoms: _283  and  _284
REMARK  118  A    between atoms: _283  and  _286
REMARK  119  A    between atoms: _286  and  _287
REMARK  120  A    between atoms: _287  and  _288
REMARK  121  A    between atoms: _288  and  _289
REMARK  122  A    between atoms: _298  and  _300
REMARK  123  A    between atoms: _300  and  _301
REMARK                            x       y       z     vdW  Elec       q    Type
REMARK                         _______ _______ _______ _____ _____    ______ ____
ROOT
ATOM      1  O   HOH     1      -8.108  27.776   8.115  0.00  0.00    +0.000 OA
ENDROOT
TORSDOF 0
REMARK  Name = ../refined-set-2016/4tte/4tte_pocket.pdb
REMARK  123 active torsions:
REMARK  status: ('A' for Active; 'I' for Inactive)
REMARK    1  A    between atoms: _1  and  _3
REMARK    2  A    between atoms: _3  and  _4
REMARK    3  A    between atoms: _3  and  _6
REMARK    4  A    between atoms: _6  and  _7
REMARK    5  A    between atoms: _13  and  _15
REMARK    6  A    between atoms: _15  and  _16
REMARK    7  A    between atoms: _15  and  _18
REMARK    8  A    between atoms: _18  and  _19
REMARK    9  A    between atoms: _19  and  _20
REMARK   10  A    between atoms: _20  and  _21
REMARK   11  A    between atoms: _30  and  _32
REMARK   12  A    between atoms: _32  and  _33
REMARK   13  A    between atoms: _32  and  _35
REMARK   14  A    between atoms: _38  and  _40
REMARK   15  A    between atoms: _40  and  _41
REMARK   16  A    between atoms: _40  and  _43
REMARK   17  A    between atoms: _43  and  _44
REMARK   18  A    between atoms: _50  and  _52
REMARK   19  A    between atoms: _52  and  _53
REMARK   20  A    between atoms: _52  and  _55
REMARK   21  A    between atoms: _55  and  _56
REMARK   22  A    between atoms: _59  and  _61
REMARK   23  A    between atoms: _61  and  _62
REMARK   24  A    between atoms: _61  and  _64
REMARK   25  A    between atoms: _64  and  _65
REMARK   26  A    between atoms: _65  and  _66
REMARK   27  A    between atoms: _66  and  _67
REMARK   28  A    between atoms: _67  and  _68
REMARK   29  A    between atoms: _73  and  _74
REMARK   30  A    between atoms: _79  and  _81
REMARK   31  A    between atoms: _81  and  _82
REMARK   32  A    between atoms: _81  and  _84
REMARK   33  A    between atoms: _87  and  _89
REMARK   34  A    between atoms: _89  and  _90
REMARK   35  A    between atoms: _89  and  _92
REMARK   36  A    between atoms: _92  and  _93
REMARK   37  A    between atoms: _96  and  _98
REMARK   38  A    between atoms: _98  and  _99
REMARK   39  A    between atoms: _98  and  _101
REMARK   40  A    between atoms: _101  and  _102
REMARK   41  A    between atoms: _102  and  _103
REMARK   42  A    between atoms: _106  and  _108
REMARK   43  A    between atoms: _108  and  _109
REMARK   44  A    between atoms: _108  and  _111
REMARK   45  A    between atoms: _114  and  _116
REMARK   46  A    between atoms: _116  and  _117
REMARK   47  A    between atoms: _116  and  _119
REMARK   48  A    between atoms: _119  and  _120
REMARK   49  A    between atoms: _123  and  _125
REMARK   50  A    between atoms: _125  and  _126
REMARK   51  A    between atoms: _125  and  _128
REMARK   52  A    between atoms: _128  and  _129
REMARK   53  A    between atoms: _134  and  _135
REMARK   54  A    between atoms: _137  and  _139
REMARK   55  A    between atoms: _139  and  _140
REMARK   56  A    between atoms: _139  and  _142
REMARK   57  A    between atoms: _142  and  _143
REMARK   58  A    between atoms: _146  and  _148
REMARK   59  A    between atoms: _148  and  _149
REMARK   60  A    between atoms: _148  and  _151
REMARK   61  A    between atoms: _151  and  _152
REMARK   62  A    between atoms: _152  and  _153
REMARK   63  A    between atoms: _155  and  _157
REMARK   64  A    between atoms: _157  and  _158
REMARK   65  A    between atoms: _157  and  _160
REMARK   66  A    between atoms: _160  and  _161
REMARK   67  A    between atoms: _164  and  _166
REMARK   68  A    between atoms: _166  and  _167
REMARK   69  A    between atoms: _166  and  _169
REMARK   70  A    between atoms: _169  and  _170
REMARK   71  A    between atoms: _172  and  _174
REMARK   72  A    between atoms: _174  and  _175
REMARK   73  A    between atoms: _174  and  _177
REMARK   74  A    between atoms: _177  and  _178
REMARK   75  A    between atoms: _181  and  _183
REMARK   76  A    between atoms: _183  and  _184
REMARK   77  A    between atoms: _183  and  _186
REMARK   78  A    between atoms: _188  and  _190
REMARK   79  A    between atoms: _190  and  _191
REMARK   80  A    between atoms: _190  and  _193
REMARK   81  A    between atoms: _193  and  _194
REMARK   82  A    between atoms: _199  and  _201
REMARK   83  A    between atoms: _201  and  _202
REMARK   84  A    between atoms: _205  and  _207
REMARK   85  A    between atoms: _207  and  _208
REMARK   86  A    between atoms: _207  and  _210
REMARK   87  A    between atoms: _210  and  _211
REMARK   88  A    between atoms: _214  and  _216
REMARK   89  A    between atoms: _216  and  _217
REMARK   90  A    between atoms: _216  and  _219
REMARK   91  A    between atoms: _219  and  _220
REMARK   92  A    between atoms: _220  and  _221
REMARK   93  A    between atoms: _224  and  _226
REMARK   94  A    between atoms: _226  and  _227
REMARK   95  A    between atoms: _226  and  _229
REMARK   96  A    between atoms: _229  and  _230
REMARK   97  A    between atoms: _235  and  _236
REMARK   98  A    between atoms: _238  and  _240
REMARK   99  A    between atoms: _240  and  _241
REMARK  100  A    between atoms: _240  and  _243
REMARK  101  A    between atoms: _243  and  _244
REMARK  102  A    between atoms: _249  and  _251
REMARK  103  A    between atoms: _251  and  _252
REMARK  104  A    between atoms: _254  and  _256
REMARK  105  A    between atoms: _256  and  _257
REMARK  106  A    between atoms: _256  and  _259
REMARK  107  A    between atoms: _259  and  _260
REMARK  108  A    between atoms: _263  and  _265
REMARK  109  A    between atoms: _265  and  _266
REMARK  110  A    between atoms: _265  and  _268
REMARK  111  A    between atoms: _268  and  _269
REMARK  112  A    between atoms: _272  and  _274
REMARK  113  A    between atoms: _274  and  _275
REMARK  114  A    between atoms: _274  and  _277
REMARK  115  A    between atoms: _277  and  _278
REMARK  116  A    between atoms: _281  and  _283
REMARK  117  A    between atoms: _283  and  _284
REMARK  118  A    between atoms: _283  and  _286
REMARK  119  A    between atoms: _286  and  _287
REMARK  120  A    between atoms: _287  and  _288
REMARK  121  A    between atoms: _288  and  _289
REMARK  122  A    between atoms: _298  and  _300
REMARK  123  A    between atoms: _300  and  _301
REMARK                            x       y       z     vdW  Elec       q    Type
REMARK                         _______ _______ _______ _____ _____    ______ ____
ROOT
ATOM      1  O   HOH     1      -7.386  27.245  12.342  0.00  0.00    +0.000 OA
ENDROOT
TORSDOF 0
REMARK  Name = ../refined-set-2016/4tte/4tte_pocket.pdb
REMARK  123 active torsions:
REMARK  status: ('A' for Active; 'I' for Inactive)
REMARK    1  A    between atoms: _1  and  _3
REMARK    2  A    between atoms: _3  and  _4
REMARK    3  A    between atoms: _3  and  _6
REMARK    4  A    between atoms: _6  and  _7
REMARK    5  A    between atoms: _13  and  _15
REMARK    6  A    between atoms: _15  and  _16
REMARK    7  A    between atoms: _15  and  _18
REMARK    8  A    between atoms: _18  and  _19
REMARK    9  A    between atoms: _19  and  _20
REMARK   10  A    between atoms: _20  and  _21
REMARK   11  A    between atoms: _30  and  _32
REMARK   12  A    between atoms: _32  and  _33
REMARK   13  A    between atoms: _32  and  _35
REMARK   14  A    between atoms: _38  and  _40
REMARK   15  A    between atoms: _40  and  _41
REMARK   16  A    between atoms: _40  and  _43
REMARK   17  A    between atoms: _43  and  _44
REMARK   18  A    between atoms: _50  and  _52
REMARK   19  A    between atoms: _52  and  _53
REMARK   20  A    between atoms: _52  and  _55
REMARK   21  A    between atoms: _55  and  _56
REMARK   22  A    between atoms: _59  and  _61
REMARK   23  A    between atoms: _61  and  _62
REMARK   24  A    between atoms: _61  and  _64
REMARK   25  A    between atoms: _64  and  _65
REMARK   26  A    between atoms: _65  and  _66
REMARK   27  A    between atoms: _66  and  _67
REMARK   28  A    between atoms: _67  and  _68
REMARK   29  A    between atoms: _73  and  _74
REMARK   30  A    between atoms: _79  and  _81
REMARK   31  A    between atoms: _81  and  _82
REMARK   32  A    between atoms: _81  and  _84
REMARK   33  A    between atoms: _87  and  _89
REMARK   34  A    between atoms: _89  and  _90
REMARK   35  A    between atoms: _89  and  _92
REMARK   36  A    between atoms: _92  and  _93
REMARK   37  A    between atoms: _96  and  _98
REMARK   38  A    between atoms: _98  and  _99
REMARK   39  A    between atoms: _98  and  _101
REMARK   40  A    between atoms: _101  and  _102
REMARK   41  A    between atoms: _102  and  _103
REMARK   42  A    between atoms: _106  and  _108
REMARK   43  A    between atoms: _108  and  _109
REMARK   44  A    between atoms: _108  and  _111
REMARK   45  A    between atoms: _114  and  _116
REMARK   46  A    between atoms: _116  and  _117
REMARK   47  A    between atoms: _116  and  _119
REMARK   48  A    between atoms: _119  and  _120
REMARK   49  A    between atoms: _123  and  _125
REMARK   50  A    between atoms: _125  and  _126
REMARK   51  A    between atoms: _125  and  _128
REMARK   52  A    between atoms: _128  and  _129
REMARK   53  A    between atoms: _134  and  _135
REMARK   54  A    between atoms: _137  and  _139
REMARK   55  A    between atoms: _139  and  _140
REMARK   56  A    between atoms: _139  and  _142
REMARK   57  A    between atoms: _142  and  _143
REMARK   58  A    between atoms: _146  and  _148
REMARK   59  A    between atoms: _148  and  _149
REMARK   60  A    between atoms: _148  and  _151
REMARK   61  A    between atoms: _151  and  _152
REMARK   62  A    between atoms: _152  and  _153
REMARK   63  A    between atoms: _155  and  _157
REMARK   64  A    between atoms: _157  and  _158
REMARK   65  A    between atoms: _157  and  _160
REMARK   66  A    between atoms: _160  and  _161
REMARK   67  A    between atoms: _164  and  _166
REMARK   68  A    between atoms: _166  and  _167
REMARK   69  A    between atoms: _166  and  _169
REMARK   70  A    between atoms: _169  and  _170
REMARK   71  A    between atoms: _172  and  _174
REMARK   72  A    between atoms: _174  and  _175
REMARK   73  A    between atoms: _174  and  _177
REMARK   74  A    between atoms: _177  and  _178
REMARK   75  A    between atoms: _181  and  _183
REMARK   76  A    between atoms: _183  and  _184
REMARK   77  A    between atoms: _183  and  _186
REMARK   78  A    between atoms: _188  and  _190
REMARK   79  A    between atoms: _190  and  _191
REMARK   80  A    between atoms: _190  and  _193
REMARK   81  A    between atoms: _193  and  _194
REMARK   82  A    between atoms: _199  and  _201
REMARK   83  A    between atoms: _201  and  _202
REMARK   84  A    between atoms: _205  and  _207
REMARK   85  A    between atoms: _207  and  _208
REMARK   86  A    between atoms: _207  and  _210
REMARK   87  A    between atoms: _210  and  _211
REMARK   88  A    between atoms: _214  and  _216
REMARK   89  A    between atoms: _216  and  _217
REMARK   90  A    between atoms: _216  and  _219
REMARK   91  A    between atoms: _219  and  _220
REMARK   92  A    between atoms: _220  and  _221
REMARK   93  A    between atoms: _224  and  _226
REMARK   94  A    between atoms: _226  and  _227
REMARK   95  A    between atoms: _226  and  _229
REMARK   96  A    between atoms: _229  and  _230
REMARK   97  A    between atoms: _235  and  _236
REMARK   98  A    between atoms: _238  and  _240
REMARK   99  A    between atoms: _240  and  _241
REMARK  100  A    between atoms: _240  and  _243
REMARK  101  A    between atoms: _243  and  _244
REMARK  102  A    between atoms: _249  and  _251
REMARK  103  A    between atoms: _251  and  _252
REMARK  104  A    between atoms: _254  and  _256
REMARK  105  A    between atoms: _256  and  _257
REMARK  106  A    between atoms: _256  and  _259
REMARK  107  A    between atoms: _259  and  _260
REMARK  108  A    between atoms: _263  and  _265
REMARK  109  A    between atoms: _265  and  _266
REMARK  110  A    between atoms: _265  and  _268
REMARK  111  A    between atoms: _268  and  _269
REMARK  112  A    between atoms: _272  and  _274
REMARK  113  A    between atoms: _274  and  _275
REMARK  114  A    between atoms: _274  and  _277
REMARK  115  A    between atoms: _277  and  _278
REMARK  116  A    between atoms: _281  and  _283
REMARK  117  A    between atoms: _283  and  _284
REMARK  118  A    between atoms: _283  and  _286
REMARK  119  A    between atoms: _286  and  _287
REMARK  120  A    between atoms: _287  and  _288
REMARK  121  A    between atoms: _288  and  _289
REMARK  122  A    between atoms: _298  and  _300
REMARK  123  A    between atoms: _300  and  _301
REMARK                            x       y       z     vdW  Elec       q    Type
REMARK                         _______ _______ _______ _____ _____    ______ ____
ROOT
ATOM      1  O   HOH     1      -7.687  25.221   4.310  0.00  0.00    +0.000 OA
ENDROOT
TORSDOF 0
REMARK  Name = ../refined-set-2016/4tte/4tte_pocket.pdb
REMARK  123 active torsions:
REMARK  status: ('A' for Active; 'I' for Inactive)
REMARK    1  A    between atoms: _1  and  _3
REMARK    2  A    between atoms: _3  and  _4
REMARK    3  A    between atoms: _3  and  _6
REMARK    4  A    between atoms: _6  and  _7
REMARK    5  A    between atoms: _13  and  _15
REMARK    6  A    between atoms: _15  and  _16
REMARK    7  A    between atoms: _15  and  _18
REMARK    8  A    between atoms: _18  and  _19
REMARK    9  A    between atoms: _19  and  _20
REMARK   10  A    between atoms: _20  and  _21
REMARK   11  A    between atoms: _30  and  _32
REMARK   12  A    between atoms: _32  and  _33
REMARK   13  A    between atoms: _32  and  _35
REMARK   14  A    between atoms: _38  and  _40
REMARK   15  A    between atoms: _40  and  _41
REMARK   16  A    between atoms: _40  and  _43
REMARK   17  A    between atoms: _43  and  _44
REMARK   18  A    between atoms: _50  and  _52
REMARK   19  A    between atoms: _52  and  _53
REMARK   20  A    between atoms: _52  and  _55
REMARK   21  A    between atoms: _55  and  _56
REMARK   22  A    between atoms: _59  and  _61
REMARK   23  A    between atoms: _61  and  _62
REMARK   24  A    between atoms: _61  and  _64
REMARK   25  A    between atoms: _64  and  _65
REMARK   26  A    between atoms: _65  and  _66
REMARK   27  A    between atoms: _66  and  _67
REMARK   28  A    between atoms: _67  and  _68
REMARK   29  A    between atoms: _73  and  _74
REMARK   30  A    between atoms: _79  and  _81
REMARK   31  A    between atoms: _81  and  _82
REMARK   32  A    between atoms: _81  and  _84
REMARK   33  A    between atoms: _87  and  _89
REMARK   34  A    between atoms: _89  and  _90
REMARK   35  A    between atoms: _89  and  _92
REMARK   36  A    between atoms: _92  and  _93
REMARK   37  A    between atoms: _96  and  _98
REMARK   38  A    between atoms: _98  and  _99
REMARK   39  A    between atoms: _98  and  _101
REMARK   40  A    between atoms: _101  and  _102
REMARK   41  A    between atoms: _102  and  _103
REMARK   42  A    between atoms: _106  and  _108
REMARK   43  A    between atoms: _108  and  _109
REMARK   44  A    between atoms: _108  and  _111
REMARK   45  A    between atoms: _114  and  _116
REMARK   46  A    between atoms: _116  and  _117
REMARK   47  A    between atoms: _116  and  _119
REMARK   48  A    between atoms: _119  and  _120
REMARK   49  A    between atoms: _123  and  _125
REMARK   50  A    between atoms: _125  and  _126
REMARK   51  A    between atoms: _125  and  _128
REMARK   52  A    between atoms: _128  and  _129
REMARK   53  A    between atoms: _134  and  _135
REMARK   54  A    between atoms: _137  and  _139
REMARK   55  A    between atoms: _139  and  _140
REMARK   56  A    between atoms: _139  and  _142
REMARK   57  A    between atoms: _142  and  _143
REMARK   58  A    between atoms: _146  and  _148
REMARK   59  A    between atoms: _148  and  _149
REMARK   60  A    between atoms: _148  and  _151
REMARK   61  A    between atoms: _151  and  _152
REMARK   62  A    between atoms: _152  and  _153
REMARK   63  A    between atoms: _155  and  _157
REMARK   64  A    between atoms: _157  and  _158
REMARK   65  A    between atoms: _157  and  _160
REMARK   66  A    between atoms: _160  and  _161
REMARK   67  A    between atoms: _164  and  _166
REMARK   68  A    between atoms: _166  and  _167
REMARK   69  A    between atoms: _166  and  _169
REMARK   70  A    between atoms: _169  and  _170
REMARK   71  A    between atoms: _172  and  _174
REMARK   72  A    between atoms: _174  and  _175
REMARK   73  A    between atoms: _174  and  _177
REMARK   74  A    between atoms: _177  and  _178
REMARK   75  A    between atoms: _181  and  _183
REMARK   76  A    between atoms: _183  and  _184
REMARK   77  A    between atoms: _183  and  _186
REMARK   78  A    between atoms: _188  and  _190
REMARK   79  A    between atoms: _190  and  _191
REMARK   80  A    between atoms: _190  and  _193
REMARK   81  A    between atoms: _193  and  _194
REMARK   82  A    between atoms: _199  and  _201
REMARK   83  A    between atoms: _201  and  _202
REMARK   84  A    between atoms: _205  and  _207
REMARK   85  A    between atoms: _207  and  _208
REMARK   86  A    between atoms: _207  and  _210
REMARK   87  A    between atoms: _210  and  _211
REMARK   88  A    between atoms: _214  and  _216
REMARK   89  A    between atoms: _216  and  _217
REMARK   90  A    between atoms: _216  and  _219
REMARK   91  A    between atoms: _219  and  _220
REMARK   92  A    between atoms: _220  and  _221
REMARK   93  A    between atoms: _224  and  _226
REMARK   94  A    between atoms: _226  and  _227
REMARK   95  A    between atoms: _226  and  _229
REMARK   96  A    between atoms: _229  and  _230
REMARK   97  A    between atoms: _235  and  _236
REMARK   98  A    between atoms: _238  and  _240
REMARK   99  A    between atoms: _240  and  _241
REMARK  100  A    between atoms: _240  and  _243
REMARK  101  A    between atoms: _243  and  _244
REMARK  102  A    between atoms: _249  and  _251
REMARK  103  A    between atoms: _251  and  _252
REMARK  104  A    between atoms: _254  and  _256
REMARK  105  A    between atoms: _256  and  _257
REMARK  106  A    between atoms: _256  and  _259
REMARK  107  A    between atoms: _259  and  _260
REMARK  108  A    between atoms: _263  and  _265
REMARK  109  A    between atoms: _265  and  _266
REMARK  110  A    between atoms: _265  and  _268
REMARK  111  A    between atoms: _268  and  _269
REMARK  112  A    between atoms: _272  and  _274
REMARK  113  A    between atoms: _274  and  _275
REMARK  114  A    between atoms: _274  and  _277
REMARK  115  A    between atoms: _277  and  _278
REMARK  116  A    between atoms: _281  and  _283
REMARK  117  A    between atoms: _283  and  _284
REMARK  118  A    between atoms: _283  and  _286
REMARK  119  A    between atoms: _286  and  _287
REMARK  120  A    between atoms: _287  and  _288
REMARK  121  A    between atoms: _288  and  _289
REMARK  122  A    between atoms: _298  and  _300
REMARK  123  A    between atoms: _300  and  _301
REMARK                            x       y       z     vdW  Elec       q    Type
REMARK                         _______ _______ _______ _____ _____    ______ ____
ROOT
ATOM      1  O   HOH     1      -8.282  25.600  10.425  0.00  0.00    +0.000 OA
ENDROOT
TORSDOF 0
REMARK  Name = ../refined-set-2016/4tte/4tte_pocket.pdb
REMARK  123 active torsions:
REMARK  status: ('A' for Active; 'I' for Inactive)
REMARK    1  A    between atoms: _1  and  _3
REMARK    2  A    between atoms: _3  and  _4
REMARK    3  A    between atoms: _3  and  _6
REMARK    4  A    between atoms: _6  and  _7
REMARK    5  A    between atoms: _13  and  _15
REMARK    6  A    between atoms: _15  and  _16
REMARK    7  A    between atoms: _15  and  _18
REMARK    8  A    between atoms: _18  and  _19
REMARK    9  A    between atoms: _19  and  _20
REMARK   10  A    between atoms: _20  and  _21
REMARK   11  A    between atoms: _30  and  _32
REMARK   12  A    between atoms: _32  and  _33
REMARK   13  A    between atoms: _32  and  _35
REMARK   14  A    between atoms: _38  and  _40
REMARK   15  A    between atoms: _40  and  _41
REMARK   16  A    between atoms: _40  and  _43
REMARK   17  A    between atoms: _43  and  _44
REMARK   18  A    between atoms: _50  and  _52
REMARK   19  A    between atoms: _52  and  _53
REMARK   20  A    between atoms: _52  and  _55
REMARK   21  A    between atoms: _55  and  _56
REMARK   22  A    between atoms: _59  and  _61
REMARK   23  A    between atoms: _61  and  _62
REMARK   24  A    between atoms: _61  and  _64
REMARK   25  A    between atoms: _64  and  _65
REMARK   26  A    between atoms: _65  and  _66
REMARK   27  A    between atoms: _66  and  _67
REMARK   28  A    between atoms: _67  and  _68
REMARK   29  A    between atoms: _73  and  _74
REMARK   30  A    between atoms: _79  and  _81
REMARK   31  A    between atoms: _81  and  _82
REMARK   32  A    between atoms: _81  and  _84
REMARK   33  A    between atoms: _87  and  _89
REMARK   34  A    between atoms: _89  and  _90
REMARK   35  A    between atoms: _89  and  _92
REMARK   36  A    between atoms: _92  and  _93
REMARK   37  A    between atoms: _96  and  _98
REMARK   38  A    between atoms: _98  and  _99
REMARK   39  A    between atoms: _98  and  _101
REMARK   40  A    between atoms: _101  and  _102
REMARK   41  A    between atoms: _102  and  _103
REMARK   42  A    between atoms: _106  and  _108
REMARK   43  A    between atoms: _108  and  _109
REMARK   44  A    between atoms: _108  and  _111
REMARK   45  A    between atoms: _114  and  _116
REMARK   46  A    between atoms: _116  and  _117
REMARK   47  A    between atoms: _116  and  _119
REMARK   48  A    between atoms: _119  and  _120
REMARK   49  A    between atoms: _123  and  _125
REMARK   50  A    between atoms: _125  and  _126
REMARK   51  A    between atoms: _125  and  _128
REMARK   52  A    between atoms: _128  and  _129
REMARK   53  A    between atoms: _134  and  _135
REMARK   54  A    between atoms: _137  and  _139
REMARK   55  A    between atoms: _139  and  _140
REMARK   56  A    between atoms: _139  and  _142
REMARK   57  A    between atoms: _142  and  _143
REMARK   58  A    between atoms: _146  and  _148
REMARK   59  A    between atoms: _148  and  _149
REMARK   60  A    between atoms: _148  and  _151
REMARK   61  A    between atoms: _151  and  _152
REMARK   62  A    between atoms: _152  and  _153
REMARK   63  A    between atoms: _155  and  _157
REMARK   64  A    between atoms: _157  and  _158
REMARK   65  A    between atoms: _157  and  _160
REMARK   66  A    between atoms: _160  and  _161
REMARK   67  A    between atoms: _164  and  _166
REMARK   68  A    between atoms: _166  and  _167
REMARK   69  A    between atoms: _166  and  _169
REMARK   70  A    between atoms: _169  and  _170
REMARK   71  A    between atoms: _172  and  _174
REMARK   72  A    between atoms: _174  and  _175
REMARK   73  A    between atoms: _174  and  _177
REMARK   74  A    between atoms: _177  and  _178
REMARK   75  A    between atoms: _181  and  _183
REMARK   76  A    between atoms: _183  and  _184
REMARK   77  A    between atoms: _183  and  _186
REMARK   78  A    between atoms: _188  and  _190
REMARK   79  A    between atoms: _190  and  _191
REMARK   80  A    between atoms: _190  and  _193
REMARK   81  A    between atoms: _193  and  _194
REMARK   82  A    between atoms: _199  and  _201
REMARK   83  A    between atoms: _201  and  _202
REMARK   84  A    between atoms: _205  and  _207
REMARK   85  A    between atoms: _207  and  _208
REMARK   86  A    between atoms: _207  and  _210
REMARK   87  A    between atoms: _210  and  _211
REMARK   88  A    between atoms: _214  and  _216
REMARK   89  A    between atoms: _216  and  _217
REMARK   90  A    between atoms: _216  and  _219
REMARK   91  A    between atoms: _219  and  _220
REMARK   92  A    between atoms: _220  and  _221
REMARK   93  A    between atoms: _224  and  _226
REMARK   94  A    between atoms: _226  and  _227
REMARK   95  A    between atoms: _226  and  _229
REMARK   96  A    between atoms: _229  and  _230
REMARK   97  A    between atoms: _235  and  _236
REMARK   98  A    between atoms: _238  and  _240
REMARK   99  A    between atoms: _240  and  _241
REMARK  100  A    between atoms: _240  and  _243
REMARK  101  A    between atoms: _243  and  _244
REMARK  102  A    between atoms: _249  and  _251
REMARK  103  A    between atoms: _251  and  _252
REMARK  104  A    between atoms: _254  and  _256
REMARK  105  A    between atoms: _256  and  _257
REMARK  106  A    between atoms: _256  and  _259
REMARK  107  A    between atoms: _259  and  _260
REMARK  108  A    between atoms: _263  and  _265
REMARK  109  A    between atoms: _265  and  _266
REMARK  110  A    between atoms: _265  and  _268
REMARK  111  A    between atoms: _268  and  _269
REMARK  112  A    between atoms: _272  and  _274
REMARK  113  A    between atoms: _274  and  _275
REMARK  114  A    between atoms: _274  and  _277
REMARK  115  A    between atoms: _277  and  _278
REMARK  116  A    between atoms: _281  and  _283
REMARK  117  A    between atoms: _283  and  _284
REMARK  118  A    between atoms: _283  and  _286
REMARK  119  A    between atoms: _286  and  _287
REMARK  120  A    between atoms: _287  and  _288
REMARK  121  A    between atoms: _288  and  _289
REMARK  122  A    between atoms: _298  and  _300
REMARK  123  A    between atoms: _300  and  _301
REMARK                            x       y       z     vdW  Elec       q    Type
REMARK                         _______ _______ _______ _____ _____    ______ ____
ROOT
ATOM      1  O   HOH     1     -19.354  26.204   9.753  0.00  0.00    +0.000 OA
ENDROOT
TORSDOF 0
REMARK  Name = ../refined-set-2016/4tte/4tte_pocket.pdb
REMARK  123 active torsions:
REMARK  status: ('A' for Active; 'I' for Inactive)
REMARK    1  A    between atoms: _1  and  _3
REMARK    2  A    between atoms: _3  and  _4
REMARK    3  A    between atoms: _3  and  _6
REMARK    4  A    between atoms: _6  and  _7
REMARK    5  A    between atoms: _13  and  _15
REMARK    6  A    between atoms: _15  and  _16
REMARK    7  A    between atoms: _15  and  _18
REMARK    8  A    between atoms: _18  and  _19
REMARK    9  A    between atoms: _19  and  _20
REMARK   10  A    between atoms: _20  and  _21
REMARK   11  A    between atoms: _30  and  _32
REMARK   12  A    between atoms: _32  and  _33
REMARK   13  A    between atoms: _32  and  _35
REMARK   14  A    between atoms: _38  and  _40
REMARK   15  A    between atoms: _40  and  _41
REMARK   16  A    between atoms: _40  and  _43
REMARK   17  A    between atoms: _43  and  _44
REMARK   18  A    between atoms: _50  and  _52
REMARK   19  A    between atoms: _52  and  _53
REMARK   20  A    between atoms: _52  and  _55
REMARK   21  A    between atoms: _55  and  _56
REMARK   22  A    between atoms: _59  and  _61
REMARK   23  A    between atoms: _61  and  _62
REMARK   24  A    between atoms: _61  and  _64
REMARK   25  A    between atoms: _64  and  _65
REMARK   26  A    between atoms: _65  and  _66
REMARK   27  A    between atoms: _66  and  _67
REMARK   28  A    between atoms: _67  and  _68
REMARK   29  A    between atoms: _73  and  _74
REMARK   30  A    between atoms: _79  and  _81
REMARK   31  A    between atoms: _81  and  _82
REMARK   32  A    between atoms: _81  and  _84
REMARK   33  A    between atoms: _87  and  _89
REMARK   34  A    between atoms: _89  and  _90
REMARK   35  A    between atoms: _89  and  _92
REMARK   36  A    between atoms: _92  and  _93
REMARK   37  A    between atoms: _96  and  _98
REMARK   38  A    between atoms: _98  and  _99
REMARK   39  A    between atoms: _98  and  _101
REMARK   40  A    between atoms: _101  and  _102
REMARK   41  A    between atoms: _102  and  _103
REMARK   42  A    between atoms: _106  and  _108
REMARK   43  A    between atoms: _108  and  _109
REMARK   44  A    between atoms: _108  and  _111
REMARK   45  A    between atoms: _114  and  _116
REMARK   46  A    between atoms: _116  and  _117
REMARK   47  A    between atoms: _116  and  _119
REMARK   48  A    between atoms: _119  and  _120
REMARK   49  A    between atoms: _123  and  _125
REMARK   50  A    between atoms: _125  and  _126
REMARK   51  A    between atoms: _125  and  _128
REMARK   52  A    between atoms: _128  and  _129
REMARK   53  A    between atoms: _134  and  _135
REMARK   54  A    between atoms: _137  and  _139
REMARK   55  A    between atoms: _139  and  _140
REMARK   56  A    between atoms: _139  and  _142
REMARK   57  A    between atoms: _142  and  _143
REMARK   58  A    between atoms: _146  and  _148
REMARK   59  A    between atoms: _148  and  _149
REMARK   60  A    between atoms: _148  and  _151
REMARK   61  A    between atoms: _151  and  _152
REMARK   62  A    between atoms: _152  and  _153
REMARK   63  A    between atoms: _155  and  _157
REMARK   64  A    between atoms: _157  and  _158
REMARK   65  A    between atoms: _157  and  _160
REMARK   66  A    between atoms: _160  and  _161
REMARK   67  A    between atoms: _164  and  _166
REMARK   68  A    between atoms: _166  and  _167
REMARK   69  A    between atoms: _166  and  _169
REMARK   70  A    between atoms: _169  and  _170
REMARK   71  A    between atoms: _172  and  _174
REMARK   72  A    between atoms: _174  and  _175
REMARK   73  A    between atoms: _174  and  _177
REMARK   74  A    between atoms: _177  and  _178
REMARK   75  A    between atoms: _181  and  _183
REMARK   76  A    between atoms: _183  and  _184
REMARK   77  A    between atoms: _183  and  _186
REMARK   78  A    between atoms: _188  and  _190
REMARK   79  A    between atoms: _190  and  _191
REMARK   80  A    between atoms: _190  and  _193
REMARK   81  A    between atoms: _193  and  _194
REMARK   82  A    between atoms: _199  and  _201
REMARK   83  A    between atoms: _201  and  _202
REMARK   84  A    between atoms: _205  and  _207
REMARK   85  A    between atoms: _207  and  _208
REMARK   86  A    between atoms: _207  and  _210
REMARK   87  A    between atoms: _210  and  _211
REMARK   88  A    between atoms: _214  and  _216
REMARK   89  A    between atoms: _216  and  _217
REMARK   90  A    between atoms: _216  and  _219
REMARK   91  A    between atoms: _219  and  _220
REMARK   92  A    between atoms: _220  and  _221
REMARK   93  A    between atoms: _224  and  _226
REMARK   94  A    between atoms: _226  and  _227
REMARK   95  A    between atoms: _226  and  _229
REMARK   96  A    between atoms: _229  and  _230
REMARK   97  A    between atoms: _235  and  _236
REMARK   98  A    between atoms: _238  and  _240
REMARK   99  A    between atoms: _240  and  _241
REMARK  100  A    between atoms: _240  and  _243
REMARK  101  A    between atoms: _243  and  _244
REMARK  102  A    between atoms: _249  and  _251
REMARK  103  A    between atoms: _251  and  _252
REMARK  104  A    between atoms: _254  and  _256
REMARK  105  A    between atoms: _256  and  _257
REMARK  106  A    between atoms: _256  and  _259
REMARK  107  A    between atoms: _259  and  _260
REMARK  108  A    between atoms: _263  and  _265
REMARK  109  A    between atoms: _265  and  _266
REMARK  110  A    between atoms: _265  and  _268
REMARK  111  A    between atoms: _268  and  _269
REMARK  112  A    between atoms: _272  and  _274
REMARK  113  A    between atoms: _274  and  _275
REMARK  114  A    between atoms: _274  and  _277
REMARK  115  A    between atoms: _277  and  _278
REMARK  116  A    between atoms: _281  and  _283
REMARK  117  A    between atoms: _283  and  _284
REMARK  118  A    between atoms: _283  and  _286
REMARK  119  A    between atoms: _286  and  _287
REMARK  120  A    between atoms: _287  and  _288
REMARK  121  A    between atoms: _288  and  _289
REMARK  122  A    between atoms: _298  and  _300
REMARK  123  A    between atoms: _300  and  _301
REMARK                            x       y       z     vdW  Elec       q    Type
REMARK                         _______ _______ _______ _____ _____    ______ ____
ROOT
ATOM      1  O   HOH     1     -19.741  23.963   8.083  0.00  0.00    +0.000 OA
ENDROOT
TORSDOF 0
REMARK  Name = ../refined-set-2016/4tte/4tte_pocket.pdb
REMARK  123 active torsions:
REMARK  status: ('A' for Active; 'I' for Inactive)
REMARK    1  A    between atoms: _1  and  _3
REMARK    2  A    between atoms: _3  and  _4
REMARK    3  A    between atoms: _3  and  _6
REMARK    4  A    between atoms: _6  and  _7
REMARK    5  A    between atoms: _13  and  _15
REMARK    6  A    between atoms: _15  and  _16
REMARK    7  A    between atoms: _15  and  _18
REMARK    8  A    between atoms: _18  and  _19
REMARK    9  A    between atoms: _19  and  _20
REMARK   10  A    between atoms: _20  and  _21
REMARK   11  A    between atoms: _30  and  _32
REMARK   12  A    between atoms: _32  and  _33
REMARK   13  A    between atoms: _32  and  _35
REMARK   14  A    between atoms: _38  and  _40
REMARK   15  A    between atoms: _40  and  _41
REMARK   16  A    between atoms: _40  and  _43
REMARK   17  A    between atoms: _43  and  _44
REMARK   18  A    between atoms: _50  and  _52
REMARK   19  A    between atoms: _52  and  _53
REMARK   20  A    between atoms: _52  and  _55
REMARK   21  A    between atoms: _55  and  _56
REMARK   22  A    between atoms: _59  and  _61
REMARK   23  A    between atoms: _61  and  _62
REMARK   24  A    between atoms: _61  and  _64
REMARK   25  A    between atoms: _64  and  _65
REMARK   26  A    between atoms: _65  and  _66
REMARK   27  A    between atoms: _66  and  _67
REMARK   28  A    between atoms: _67  and  _68
REMARK   29  A    between atoms: _73  and  _74
REMARK   30  A    between atoms: _79  and  _81
REMARK   31  A    between atoms: _81  and  _82
REMARK   32  A    between atoms: _81  and  _84
REMARK   33  A    between atoms: _87  and  _89
REMARK   34  A    between atoms: _89  and  _90
REMARK   35  A    between atoms: _89  and  _92
REMARK   36  A    between atoms: _92  and  _93
REMARK   37  A    between atoms: _96  and  _98
REMARK   38  A    between atoms: _98  and  _99
REMARK   39  A    between atoms: _98  and  _101
REMARK   40  A    between atoms: _101  and  _102
REMARK   41  A    between atoms: _102  and  _103
REMARK   42  A    between atoms: _106  and  _108
REMARK   43  A    between atoms: _108  and  _109
REMARK   44  A    between atoms: _108  and  _111
REMARK   45  A    between atoms: _114  and  _116
REMARK   46  A    between atoms: _116  and  _117
REMARK   47  A    between atoms: _116  and  _119
REMARK   48  A    between atoms: _119  and  _120
REMARK   49  A    between atoms: _123  and  _125
REMARK   50  A    between atoms: _125  and  _126
REMARK   51  A    between atoms: _125  and  _128
REMARK   52  A    between atoms: _128  and  _129
REMARK   53  A    between atoms: _134  and  _135
REMARK   54  A    between atoms: _137  and  _139
REMARK   55  A    between atoms: _139  and  _140
REMARK   56  A    between atoms: _139  and  _142
REMARK   57  A    between atoms: _142  and  _143
REMARK   58  A    between atoms: _146  and  _148
REMARK   59  A    between atoms: _148  and  _149
REMARK   60  A    between atoms: _148  and  _151
REMARK   61  A    between atoms: _151  and  _152
REMARK   62  A    between atoms: _152  and  _153
REMARK   63  A    between atoms: _155  and  _157
REMARK   64  A    between atoms: _157  and  _158
REMARK   65  A    between atoms: _157  and  _160
REMARK   66  A    between atoms: _160  and  _161
REMARK   67  A    between atoms: _164  and  _166
REMARK   68  A    between atoms: _166  and  _167
REMARK   69  A    between atoms: _166  and  _169
REMARK   70  A    between atoms: _169  and  _170
REMARK   71  A    between atoms: _172  and  _174
REMARK   72  A    between atoms: _174  and  _175
REMARK   73  A    between atoms: _174  and  _177
REMARK   74  A    between atoms: _177  and  _178
REMARK   75  A    between atoms: _181  and  _183
REMARK   76  A    between atoms: _183  and  _184
REMARK   77  A    between atoms: _183  and  _186
REMARK   78  A    between atoms: _188  and  _190
REMARK   79  A    between atoms: _190  and  _191
REMARK   80  A    between atoms: _190  and  _193
REMARK   81  A    between atoms: _193  and  _194
REMARK   82  A    between atoms: _199  and  _201
REMARK   83  A    between atoms: _201  and  _202
REMARK   84  A    between atoms: _205  and  _207
REMARK   85  A    between atoms: _207  and  _208
REMARK   86  A    between atoms: _207  and  _210
REMARK   87  A    between atoms: _210  and  _211
REMARK   88  A    between atoms: _214  and  _216
REMARK   89  A    between atoms: _216  and  _217
REMARK   90  A    between atoms: _216  and  _219
REMARK   91  A    between atoms: _219  and  _220
REMARK   92  A    between atoms: _220  and  _221
REMARK   93  A    between atoms: _224  and  _226
REMARK   94  A    between atoms: _226  and  _227
REMARK   95  A    between atoms: _226  and  _229
REMARK   96  A    between atoms: _229  and  _230
REMARK   97  A    between atoms: _235  and  _236
REMARK   98  A    between atoms: _238  and  _240
REMARK   99  A    between atoms: _240  and  _241
REMARK  100  A    between atoms: _240  and  _243
REMARK  101  A    between atoms: _243  and  _244
REMARK  102  A    between atoms: _249  and  _251
REMARK  103  A    between atoms: _251  and  _252
REMARK  104  A    between atoms: _254  and  _256
REMARK  105  A    between atoms: _256  and  _257
REMARK  106  A    between atoms: _256  and  _259
REMARK  107  A    between atoms: _259  and  _260
REMARK  108  A    between atoms: _263  and  _265
REMARK  109  A    between atoms: _265  and  _266
REMARK  110  A    between atoms: _265  and  _268
REMARK  111  A    between atoms: _268  and  _269
REMARK  112  A    between atoms: _272  and  _274
REMARK  113  A    between atoms: _274  and  _275
REMARK  114  A    between atoms: _274  and  _277
REMARK  115  A    between atoms: _277  and  _278
REMARK  116  A    between atoms: _281  and  _283
REMARK  117  A    between atoms: _283  and  _284
REMARK  118  A    between atoms: _283  and  _286
REMARK  119  A    between atoms: _286  and  _287
REMARK  120  A    between atoms: _287  and  _288
REMARK  121  A    between atoms: _288  and  _289
REMARK  122  A    between atoms: _298  and  _300
REMARK  123  A    between atoms: _300  and  _301
REMARK                            x       y       z     vdW  Elec       q    Type
REMARK                         _______ _______ _______ _____ _____    ______ ____
ROOT
ATOM      1  O   HOH     1     -17.772  25.793  11.994  0.00  0.00    +0.000 OA
ENDROOT
TORSDOF 0
REMARK  Name = ../refined-set-2016/4tte/4tte_pocket.pdb
REMARK  123 active torsions:
REMARK  status: ('A' for Active; 'I' for Inactive)
REMARK    1  A    between atoms: _1  and  _3
REMARK    2  A    between atoms: _3  and  _4
REMARK    3  A    between atoms: _3  and  _6
REMARK    4  A    between atoms: _6  and  _7
REMARK    5  A    between atoms: _13  and  _15
REMARK    6  A    between atoms: _15  and  _16
REMARK    7  A    between atoms: _15  and  _18
REMARK    8  A    between atoms: _18  and  _19
REMARK    9  A    between atoms: _19  and  _20
REMARK   10  A    between atoms: _20  and  _21
REMARK   11  A    between atoms: _30  and  _32
REMARK   12  A    between atoms: _32  and  _33
REMARK   13  A    between atoms: _32  and  _35
REMARK   14  A    between atoms: _38  and  _40
REMARK   15  A    between atoms: _40  and  _41
REMARK   16  A    between atoms: _40  and  _43
REMARK   17  A    between atoms: _43  and  _44
REMARK   18  A    between atoms: _50  and  _52
REMARK   19  A    between atoms: _52  and  _53
REMARK   20  A    between atoms: _52  and  _55
REMARK   21  A    between atoms: _55  and  _56
REMARK   22  A    between atoms: _59  and  _61
REMARK   23  A    between atoms: _61  and  _62
REMARK   24  A    between atoms: _61  and  _64
REMARK   25  A    between atoms: _64  and  _65
REMARK   26  A    between atoms: _65  and  _66
REMARK   27  A    between atoms: _66  and  _67
REMARK   28  A    between atoms: _67  and  _68
REMARK   29  A    between atoms: _73  and  _74
REMARK   30  A    between atoms: _79  and  _81
REMARK   31  A    between atoms: _81  and  _82
REMARK   32  A    between atoms: _81  and  _84
REMARK   33  A    between atoms: _87  and  _89
REMARK   34  A    between atoms: _89  and  _90
REMARK   35  A    between atoms: _89  and  _92
REMARK   36  A    between atoms: _92  and  _93
REMARK   37  A    between atoms: _96  and  _98
REMARK   38  A    between atoms: _98  and  _99
REMARK   39  A    between atoms: _98  and  _101
REMARK   40  A    between atoms: _101  and  _102
REMARK   41  A    between atoms: _102  and  _103
REMARK   42  A    between atoms: _106  and  _108
REMARK   43  A    between atoms: _108  and  _109
REMARK   44  A    between atoms: _108  and  _111
REMARK   45  A    between atoms: _114  and  _116
REMARK   46  A    between atoms: _116  and  _117
REMARK   47  A    between atoms: _116  and  _119
REMARK   48  A    between atoms: _119  and  _120
REMARK   49  A    between atoms: _123  and  _125
REMARK   50  A    between atoms: _125  and  _126
REMARK   51  A    between atoms: _125  and  _128
REMARK   52  A    between atoms: _128  and  _129
REMARK   53  A    between atoms: _134  and  _135
REMARK   54  A    between atoms: _137  and  _139
REMARK   55  A    between atoms: _139  and  _140
REMARK   56  A    between atoms: _139  and  _142
REMARK   57  A    between atoms: _142  and  _143
REMARK   58  A    between atoms: _146  and  _148
REMARK   59  A    between atoms: _148  and  _149
REMARK   60  A    between atoms: _148  and  _151
REMARK   61  A    between atoms: _151  and  _152
REMARK   62  A    between atoms: _152  and  _153
REMARK   63  A    between atoms: _155  and  _157
REMARK   64  A    between atoms: _157  and  _158
REMARK   65  A    between atoms: _157  and  _160
REMARK   66  A    between atoms: _160  and  _161
REMARK   67  A    between atoms: _164  and  _166
REMARK   68  A    between atoms: _166  and  _167
REMARK   69  A    between atoms: _166  and  _169
REMARK   70  A    between atoms: _169  and  _170
REMARK   71  A    between atoms: _172  and  _174
REMARK   72  A    between atoms: _174  and  _175
REMARK   73  A    between atoms: _174  and  _177
REMARK   74  A    between atoms: _177  and  _178
REMARK   75  A    between atoms: _181  and  _183
REMARK   76  A    between atoms: _183  and  _184
REMARK   77  A    between atoms: _183  and  _186
REMARK   78  A    between atoms: _188  and  _190
REMARK   79  A    between atoms: _190  and  _191
REMARK   80  A    between atoms: _190  and  _193
REMARK   81  A    between atoms: _193  and  _194
REMARK   82  A    between atoms: _199  and  _201
REMARK   83  A    between atoms: _201  and  _202
REMARK   84  A    between atoms: _205  and  _207
REMARK   85  A    between atoms: _207  and  _208
REMARK   86  A    between atoms: _207  and  _210
REMARK   87  A    between atoms: _210  and  _211
REMARK   88  A    between atoms: _214  and  _216
REMARK   89  A    between atoms: _216  and  _217
REMARK   90  A    between atoms: _216  and  _219
REMARK   91  A    between atoms: _219  and  _220
REMARK   92  A    between atoms: _220  and  _221
REMARK   93  A    between atoms: _224  and  _226
REMARK   94  A    between atoms: _226  and  _227
REMARK   95  A    between atoms: _226  and  _229
REMARK   96  A    between atoms: _229  and  _230
REMARK   97  A    between atoms: _235  and  _236
REMARK   98  A    between atoms: _238  and  _240
REMARK   99  A    between atoms: _240  and  _241
REMARK  100  A    between atoms: _240  and  _243
REMARK  101  A    between atoms: _243  and  _244
REMARK  102  A    between atoms: _249  and  _251
REMARK  103  A    between atoms: _251  and  _252
REMARK  104  A    between atoms: _254  and  _256
REMARK  105  A    between atoms: _256  and  _257
REMARK  106  A    between atoms: _256  and  _259
REMARK  107  A    between atoms: _259  and  _260
REMARK  108  A    between atoms: _263  and  _265
REMARK  109  A    between atoms: _265  and  _266
REMARK  110  A    between atoms: _265  and  _268
REMARK  111  A    between atoms: _268  and  _269
REMARK  112  A    between atoms: _272  and  _274
REMARK  113  A    between atoms: _274  and  _275
REMARK  114  A    between atoms: _274  and  _277
REMARK  115  A    between atoms: _277  and  _278
REMARK  116  A    between atoms: _281  and  _283
REMARK  117  A    between atoms: _283  and  _284
REMARK  118  A    between atoms: _283  and  _286
REMARK  119  A    between atoms: _286  and  _287
REMARK  120  A    between atoms: _287  and  _288
REMARK  121  A    between atoms: _288  and  _289
REMARK  122  A    between atoms: _298  and  _300
REMARK  123  A    between atoms: _300  and  _301
REMARK                            x       y       z     vdW  Elec       q    Type
REMARK                         _______ _______ _______ _____ _____    ______ ____
ROOT
ATOM      1  O   HOH     1     -21.202  23.560  11.266  0.00  0.00    +0.000 OA
ENDROOT
TORSDOF 0
REMARK  Name = ../refined-set-2016/4tte/4tte_pocket.pdb
REMARK  123 active torsions:
REMARK  status: ('A' for Active; 'I' for Inactive)
REMARK    1  A    between atoms: _1  and  _3
REMARK    2  A    between atoms: _3  and  _4
REMARK    3  A    between atoms: _3  and  _6
REMARK    4  A    between atoms: _6  and  _7
REMARK    5  A    between atoms: _13  and  _15
REMARK    6  A    between atoms: _15  and  _16
REMARK    7  A    between atoms: _15  and  _18
REMARK    8  A    between atoms: _18  and  _19
REMARK    9  A    between atoms: _19  and  _20
REMARK   10  A    between atoms: _20  and  _21
REMARK   11  A    between atoms: _30  and  _32
REMARK   12  A    between atoms: _32  and  _33
REMARK   13  A    between atoms: _32  and  _35
REMARK   14  A    between atoms: _38  and  _40
REMARK   15  A    between atoms: _40  and  _41
REMARK   16  A    between atoms: _40  and  _43
REMARK   17  A    between atoms: _43  and  _44
REMARK   18  A    between atoms: _50  and  _52
REMARK   19  A    between atoms: _52  and  _53
REMARK   20  A    between atoms: _52  and  _55
REMARK   21  A    between atoms: _55  and  _56
REMARK   22  A    between atoms: _59  and  _61
REMARK   23  A    between atoms: _61  and  _62
REMARK   24  A    between atoms: _61  and  _64
REMARK   25  A    between atoms: _64  and  _65
REMARK   26  A    between atoms: _65  and  _66
REMARK   27  A    between atoms: _66  and  _67
REMARK   28  A    between atoms: _67  and  _68
REMARK   29  A    between atoms: _73  and  _74
REMARK   30  A    between atoms: _79  and  _81
REMARK   31  A    between atoms: _81  and  _82
REMARK   32  A    between atoms: _81  and  _84
REMARK   33  A    between atoms: _87  and  _89
REMARK   34  A    between atoms: _89  and  _90
REMARK   35  A    between atoms: _89  and  _92
REMARK   36  A    between atoms: _92  and  _93
REMARK   37  A    between atoms: _96  and  _98
REMARK   38  A    between atoms: _98  and  _99
REMARK   39  A    between atoms: _98  and  _101
REMARK   40  A    between atoms: _101  and  _102
REMARK   41  A    between atoms: _102  and  _103
REMARK   42  A    between atoms: _106  and  _108
REMARK   43  A    between atoms: _108  and  _109
REMARK   44  A    between atoms: _108  and  _111
REMARK   45  A    between atoms: _114  and  _116
REMARK   46  A    between atoms: _116  and  _117
REMARK   47  A    between atoms: _116  and  _119
REMARK   48  A    between atoms: _119  and  _120
REMARK   49  A    between atoms: _123  and  _125
REMARK   50  A    between atoms: _125  and  _126
REMARK   51  A    between atoms: _125  and  _128
REMARK   52  A    between atoms: _128  and  _129
REMARK   53  A    between atoms: _134  and  _135
REMARK   54  A    between atoms: _137  and  _139
REMARK   55  A    between atoms: _139  and  _140
REMARK   56  A    between atoms: _139  and  _142
REMARK   57  A    between atoms: _142  and  _143
REMARK   58  A    between atoms: _146  and  _148
REMARK   59  A    between atoms: _148  and  _149
REMARK   60  A    between atoms: _148  and  _151
REMARK   61  A    between atoms: _151  and  _152
REMARK   62  A    between atoms: _152  and  _153
REMARK   63  A    between atoms: _155  and  _157
REMARK   64  A    between atoms: _157  and  _158
REMARK   65  A    between atoms: _157  and  _160
REMARK   66  A    between atoms: _160  and  _161
REMARK   67  A    between atoms: _164  and  _166
REMARK   68  A    between atoms: _166  and  _167
REMARK   69  A    between atoms: _166  and  _169
REMARK   70  A    between atoms: _169  and  _170
REMARK   71  A    between atoms: _172  and  _174
REMARK   72  A    between atoms: _174  and  _175
REMARK   73  A    between atoms: _174  and  _177
REMARK   74  A    between atoms: _177  and  _178
REMARK   75  A    between atoms: _181  and  _183
REMARK   76  A    between atoms: _183  and  _184
REMARK   77  A    between atoms: _183  and  _186
REMARK   78  A    between atoms: _188  and  _190
REMARK   79  A    between atoms: _190  and  _191
REMARK   80  A    between atoms: _190  and  _193
REMARK   81  A    between atoms: _193  and  _194
REMARK   82  A    between atoms: _199  and  _201
REMARK   83  A    between atoms: _201  and  _202
REMARK   84  A    between atoms: _205  and  _207
REMARK   85  A    between atoms: _207  and  _208
REMARK   86  A    between atoms: _207  and  _210
REMARK   87  A    between atoms: _210  and  _211
REMARK   88  A    between atoms: _214  and  _216
REMARK   89  A    between atoms: _216  and  _217
REMARK   90  A    between atoms: _216  and  _219
REMARK   91  A    between atoms: _219  and  _220
REMARK   92  A    between atoms: _220  and  _221
REMARK   93  A    between atoms: _224  and  _226
REMARK   94  A    between atoms: _226  and  _227
REMARK   95  A    between atoms: _226  and  _229
REMARK   96  A    between atoms: _229  and  _230
REMARK   97  A    between atoms: _235  and  _236
REMARK   98  A    between atoms: _238  and  _240
REMARK   99  A    between atoms: _240  and  _241
REMARK  100  A    between atoms: _240  and  _243
REMARK  101  A    between atoms: _243  and  _244
REMARK  102  A    between atoms: _249  and  _251
REMARK  103  A    between atoms: _251  and  _252
REMARK  104  A    between atoms: _254  and  _256
REMARK  105  A    between atoms: _256  and  _257
REMARK  106  A    between atoms: _256  and  _259
REMARK  107  A    between atoms: _259  and  _260
REMARK  108  A    between atoms: _263  and  _265
REMARK  109  A    between atoms: _265  and  _266
REMARK  110  A    between atoms: _265  and  _268
REMARK  111  A    between atoms: _268  and  _269
REMARK  112  A    between atoms: _272  and  _274
REMARK  113  A    between atoms: _274  and  _275
REMARK  114  A    between atoms: _274  and  _277
REMARK  115  A    between atoms: _277  and  _278
REMARK  116  A    between atoms: _281  and  _283
REMARK  117  A    between atoms: _283  and  _284
REMARK  118  A    between atoms: _283  and  _286
REMARK  119  A    between atoms: _286  and  _287
REMARK  120  A    between atoms: _287  and  _288
REMARK  121  A    between atoms: _288  and  _289
REMARK  122  A    between atoms: _298  and  _300
REMARK  123  A    between atoms: _300  and  _301
REMARK                            x       y       z     vdW  Elec       q    Type
REMARK                         _______ _______ _______ _____ _____    ______ ____
ROOT
ATOM      1  O   HOH     1     -12.284  25.920   2.234  0.00  0.00    +0.000 OA
ENDROOT
TORSDOF 0
REMARK  Name = ../refined-set-2016/4tte/4tte_pocket.pdb
REMARK  123 active torsions:
REMARK  status: ('A' for Active; 'I' for Inactive)
REMARK    1  A    between atoms: _1  and  _3
REMARK    2  A    between atoms: _3  and  _4
REMARK    3  A    between atoms: _3  and  _6
REMARK    4  A    between atoms: _6  and  _7
REMARK    5  A    between atoms: _13  and  _15
REMARK    6  A    between atoms: _15  and  _16
REMARK    7  A    between atoms: _15  and  _18
REMARK    8  A    between atoms: _18  and  _19
REMARK    9  A    between atoms: _19  and  _20
REMARK   10  A    between atoms: _20  and  _21
REMARK   11  A    between atoms: _30  and  _32
REMARK   12  A    between atoms: _32  and  _33
REMARK   13  A    between atoms: _32  and  _35
REMARK   14  A    between atoms: _38  and  _40
REMARK   15  A    between atoms: _40  and  _41
REMARK   16  A    between atoms: _40  and  _43
REMARK   17  A    between atoms: _43  and  _44
REMARK   18  A    between atoms: _50  and  _52
REMARK   19  A    between atoms: _52  and  _53
REMARK   20  A    between atoms: _52  and  _55
REMARK   21  A    between atoms: _55  and  _56
REMARK   22  A    between atoms: _59  and  _61
REMARK   23  A    between atoms: _61  and  _62
REMARK   24  A    between atoms: _61  and  _64
REMARK   25  A    between atoms: _64  and  _65
REMARK   26  A    between atoms: _65  and  _66
REMARK   27  A    between atoms: _66  and  _67
REMARK   28  A    between atoms: _67  and  _68
REMARK   29  A    between atoms: _73  and  _74
REMARK   30  A    between atoms: _79  and  _81
REMARK   31  A    between atoms: _81  and  _82
REMARK   32  A    between atoms: _81  and  _84
REMARK   33  A    between atoms: _87  and  _89
REMARK   34  A    between atoms: _89  and  _90
REMARK   35  A    between atoms: _89  and  _92
REMARK   36  A    between atoms: _92  and  _93
REMARK   37  A    between atoms: _96  and  _98
REMARK   38  A    between atoms: _98  and  _99
REMARK   39  A    between atoms: _98  and  _101
REMARK   40  A    between atoms: _101  and  _102
REMARK   41  A    between atoms: _102  and  _103
REMARK   42  A    between atoms: _106  and  _108
REMARK   43  A    between atoms: _108  and  _109
REMARK   44  A    between atoms: _108  and  _111
REMARK   45  A    between atoms: _114  and  _116
REMARK   46  A    between atoms: _116  and  _117
REMARK   47  A    between atoms: _116  and  _119
REMARK   48  A    between atoms: _119  and  _120
REMARK   49  A    between atoms: _123  and  _125
REMARK   50  A    between atoms: _125  and  _126
REMARK   51  A    between atoms: _125  and  _128
REMARK   52  A    between atoms: _128  and  _129
REMARK   53  A    between atoms: _134  and  _135
REMARK   54  A    between atoms: _137  and  _139
REMARK   55  A    between atoms: _139  and  _140
REMARK   56  A    between atoms: _139  and  _142
REMARK   57  A    between atoms: _142  and  _143
REMARK   58  A    between atoms: _146  and  _148
REMARK   59  A    between atoms: _148  and  _149
REMARK   60  A    between atoms: _148  and  _151
REMARK   61  A    between atoms: _151  and  _152
REMARK   62  A    between atoms: _152  and  _153
REMARK   63  A    between atoms: _155  and  _157
REMARK   64  A    between atoms: _157  and  _158
REMARK   65  A    between atoms: _157  and  _160
REMARK   66  A    between atoms: _160  and  _161
REMARK   67  A    between atoms: _164  and  _166
REMARK   68  A    between atoms: _166  and  _167
REMARK   69  A    between atoms: _166  and  _169
REMARK   70  A    between atoms: _169  and  _170
REMARK   71  A    between atoms: _172  and  _174
REMARK   72  A    between atoms: _174  and  _175
REMARK   73  A    between atoms: _174  and  _177
REMARK   74  A    between atoms: _177  and  _178
REMARK   75  A    between atoms: _181  and  _183
REMARK   76  A    between atoms: _183  and  _184
REMARK   77  A    between atoms: _183  and  _186
REMARK   78  A    between atoms: _188  and  _190
REMARK   79  A    between atoms: _190  and  _191
REMARK   80  A    between atoms: _190  and  _193
REMARK   81  A    between atoms: _193  and  _194
REMARK   82  A    between atoms: _199  and  _201
REMARK   83  A    between atoms: _201  and  _202
REMARK   84  A    between atoms: _205  and  _207
REMARK   85  A    between atoms: _207  and  _208
REMARK   86  A    between atoms: _207  and  _210
REMARK   87  A    between atoms: _210  and  _211
REMARK   88  A    between atoms: _214  and  _216
REMARK   89  A    between atoms: _216  and  _217
REMARK   90  A    between atoms: _216  and  _219
REMARK   91  A    between atoms: _219  and  _220
REMARK   92  A    between atoms: _220  and  _221
REMARK   93  A    between atoms: _224  and  _226
REMARK   94  A    between atoms: _226  and  _227
REMARK   95  A    between atoms: _226  and  _229
REMARK   96  A    between atoms: _229  and  _230
REMARK   97  A    between atoms: _235  and  _236
REMARK   98  A    between atoms: _238  and  _240
REMARK   99  A    between atoms: _240  and  _241
REMARK  100  A    between atoms: _240  and  _243
REMARK  101  A    between atoms: _243  and  _244
REMARK  102  A    between atoms: _249  and  _251
REMARK  103  A    between atoms: _251  and  _252
REMARK  104  A    between atoms: _254  and  _256
REMARK  105  A    between atoms: _256  and  _257
REMARK  106  A    between atoms: _256  and  _259
REMARK  107  A    between atoms: _259  and  _260
REMARK  108  A    between atoms: _263  and  _265
REMARK  109  A    between atoms: _265  and  _266
REMARK  110  A    between atoms: _265  and  _268
REMARK  111  A    between atoms: _268  and  _269
REMARK  112  A    between atoms: _272  and  _274
REMARK  113  A    between atoms: _274  and  _275
REMARK  114  A    between atoms: _274  and  _277
REMARK  115  A    between atoms: _277  and  _278
REMARK  116  A    between atoms: _281  and  _283
REMARK  117  A    between atoms: _283  and  _284
REMARK  118  A    between atoms: _283  and  _286
REMARK  119  A    between atoms: _286  and  _287
REMARK  120  A    between atoms: _287  and  _288
REMARK  121  A    between atoms: _288  and  _289
REMARK  122  A    between atoms: _298  and  _300
REMARK  123  A    between atoms: _300  and  _301
REMARK                            x       y       z     vdW  Elec       q    Type
REMARK                         _______ _______ _______ _____ _____    ______ ____
ROOT
ATOM      1  O   HOH     1     -22.759  19.754   9.561  0.00  0.00    +0.000 OA
ENDROOT
TORSDOF 0
REMARK  Name = ../refined-set-2016/4tte/4tte_pocket.pdb
REMARK  123 active torsions:
REMARK  status: ('A' for Active; 'I' for Inactive)
REMARK    1  A    between atoms: _1  and  _3
REMARK    2  A    between atoms: _3  and  _4
REMARK    3  A    between atoms: _3  and  _6
REMARK    4  A    between atoms: _6  and  _7
REMARK    5  A    between atoms: _13  and  _15
REMARK    6  A    between atoms: _15  and  _16
REMARK    7  A    between atoms: _15  and  _18
REMARK    8  A    between atoms: _18  and  _19
REMARK    9  A    between atoms: _19  and  _20
REMARK   10  A    between atoms: _20  and  _21
REMARK   11  A    between atoms: _30  and  _32
REMARK   12  A    between atoms: _32  and  _33
REMARK   13  A    between atoms: _32  and  _35
REMARK   14  A    between atoms: _38  and  _40
REMARK   15  A    between atoms: _40  and  _41
REMARK   16  A    between atoms: _40  and  _43
REMARK   17  A    between atoms: _43  and  _44
REMARK   18  A    between atoms: _50  and  _52
REMARK   19  A    between atoms: _52  and  _53
REMARK   20  A    between atoms: _52  and  _55
REMARK   21  A    between atoms: _55  and  _56
REMARK   22  A    between atoms: _59  and  _61
REMARK   23  A    between atoms: _61  and  _62
REMARK   24  A    between atoms: _61  and  _64
REMARK   25  A    between atoms: _64  and  _65
REMARK   26  A    between atoms: _65  and  _66
REMARK   27  A    between atoms: _66  and  _67
REMARK   28  A    between atoms: _67  and  _68
REMARK   29  A    between atoms: _73  and  _74
REMARK   30  A    between atoms: _79  and  _81
REMARK   31  A    between atoms: _81  and  _82
REMARK   32  A    between atoms: _81  and  _84
REMARK   33  A    between atoms: _87  and  _89
REMARK   34  A    between atoms: _89  and  _90
REMARK   35  A    between atoms: _89  and  _92
REMARK   36  A    between atoms: _92  and  _93
REMARK   37  A    between atoms: _96  and  _98
REMARK   38  A    between atoms: _98  and  _99
REMARK   39  A    between atoms: _98  and  _101
REMARK   40  A    between atoms: _101  and  _102
REMARK   41  A    between atoms: _102  and  _103
REMARK   42  A    between atoms: _106  and  _108
REMARK   43  A    between atoms: _108  and  _109
REMARK   44  A    between atoms: _108  and  _111
REMARK   45  A    between atoms: _114  and  _116
REMARK   46  A    between atoms: _116  and  _117
REMARK   47  A    between atoms: _116  and  _119
REMARK   48  A    between atoms: _119  and  _120
REMARK   49  A    between atoms: _123  and  _125
REMARK   50  A    between atoms: _125  and  _126
REMARK   51  A    between atoms: _125  and  _128
REMARK   52  A    between atoms: _128  and  _129
REMARK   53  A    between atoms: _134  and  _135
REMARK   54  A    between atoms: _137  and  _139
REMARK   55  A    between atoms: _139  and  _140
REMARK   56  A    between atoms: _139  and  _142
REMARK   57  A    between atoms: _142  and  _143
REMARK   58  A    between atoms: _146  and  _148
REMARK   59  A    between atoms: _148  and  _149
REMARK   60  A    between atoms: _148  and  _151
REMARK   61  A    between atoms: _151  and  _152
REMARK   62  A    between atoms: _152  and  _153
REMARK   63  A    between atoms: _155  and  _157
REMARK   64  A    between atoms: _157  and  _158
REMARK   65  A    between atoms: _157  and  _160
REMARK   66  A    between atoms: _160  and  _161
REMARK   67  A    between atoms: _164  and  _166
REMARK   68  A    between atoms: _166  and  _167
REMARK   69  A    between atoms: _166  and  _169
REMARK   70  A    between atoms: _169  and  _170
REMARK   71  A    between atoms: _172  and  _174
REMARK   72  A    between atoms: _174  and  _175
REMARK   73  A    between atoms: _174  and  _177
REMARK   74  A    between atoms: _177  and  _178
REMARK   75  A    between atoms: _181  and  _183
REMARK   76  A    between atoms: _183  and  _184
REMARK   77  A    between atoms: _183  and  _186
REMARK   78  A    between atoms: _188  and  _190
REMARK   79  A    between atoms: _190  and  _191
REMARK   80  A    between atoms: _190  and  _193
REMARK   81  A    between atoms: _193  and  _194
REMARK   82  A    between atoms: _199  and  _201
REMARK   83  A    between atoms: _201  and  _202
REMARK   84  A    between atoms: _205  and  _207
REMARK   85  A    between atoms: _207  and  _208
REMARK   86  A    between atoms: _207  and  _210
REMARK   87  A    between atoms: _210  and  _211
REMARK   88  A    between atoms: _214  and  _216
REMARK   89  A    between atoms: _216  and  _217
REMARK   90  A    between atoms: _216  and  _219
REMARK   91  A    between atoms: _219  and  _220
REMARK   92  A    between atoms: _220  and  _221
REMARK   93  A    between atoms: _224  and  _226
REMARK   94  A    between atoms: _226  and  _227
REMARK   95  A    between atoms: _226  and  _229
REMARK   96  A    between atoms: _229  and  _230
REMARK   97  A    between atoms: _235  and  _236
REMARK   98  A    between atoms: _238  and  _240
REMARK   99  A    between atoms: _240  and  _241
REMARK  100  A    between atoms: _240  and  _243
REMARK  101  A    between atoms: _243  and  _244
REMARK  102  A    between atoms: _249  and  _251
REMARK  103  A    between atoms: _251  and  _252
REMARK  104  A    between atoms: _254  and  _256
REMARK  105  A    between atoms: _256  and  _257
REMARK  106  A    between atoms: _256  and  _259
REMARK  107  A    between atoms: _259  and  _260
REMARK  108  A    between atoms: _263  and  _265
REMARK  109  A    between atoms: _265  and  _266
REMARK  110  A    between atoms: _265  and  _268
REMARK  111  A    between atoms: _268  and  _269
REMARK  112  A    between atoms: _272  and  _274
REMARK  113  A    between atoms: _274  and  _275
REMARK  114  A    between atoms: _274  and  _277
REMARK  115  A    between atoms: _277  and  _278
REMARK  116  A    between atoms: _281  and  _283
REMARK  117  A    between atoms: _283  and  _284
REMARK  118  A    between atoms: _283  and  _286
REMARK  119  A    between atoms: _286  and  _287
REMARK  120  A    between atoms: _287  and  _288
REMARK  121  A    between atoms: _288  and  _289
REMARK  122  A    between atoms: _298  and  _300
REMARK  123  A    between atoms: _300  and  _301
REMARK                            x       y       z     vdW  Elec       q    Type
REMARK                         _______ _______ _______ _____ _____    ______ ____
ROOT
ATOM      1  O   HOH     1     -20.369  20.564  10.723  0.00  0.00    +0.000 OA
ENDROOT
TORSDOF 0
REMARK  Name = ../refined-set-2016/4tte/4tte_pocket.pdb
REMARK  123 active torsions:
REMARK  status: ('A' for Active; 'I' for Inactive)
REMARK    1  A    between atoms: _1  and  _3
REMARK    2  A    between atoms: _3  and  _4
REMARK    3  A    between atoms: _3  and  _6
REMARK    4  A    between atoms: _6  and  _7
REMARK    5  A    between atoms: _13  and  _15
REMARK    6  A    between atoms: _15  and  _16
REMARK    7  A    between atoms: _15  and  _18
REMARK    8  A    between atoms: _18  and  _19
REMARK    9  A    between atoms: _19  and  _20
REMARK   10  A    between atoms: _20  and  _21
REMARK   11  A    between atoms: _30  and  _32
REMARK   12  A    between atoms: _32  and  _33
REMARK   13  A    between atoms: _32  and  _35
REMARK   14  A    between atoms: _38  and  _40
REMARK   15  A    between atoms: _40  and  _41
REMARK   16  A    between atoms: _40  and  _43
REMARK   17  A    between atoms: _43  and  _44
REMARK   18  A    between atoms: _50  and  _52
REMARK   19  A    between atoms: _52  and  _53
REMARK   20  A    between atoms: _52  and  _55
REMARK   21  A    between atoms: _55  and  _56
REMARK   22  A    between atoms: _59  and  _61
REMARK   23  A    between atoms: _61  and  _62
REMARK   24  A    between atoms: _61  and  _64
REMARK   25  A    between atoms: _64  and  _65
REMARK   26  A    between atoms: _65  and  _66
REMARK   27  A    between atoms: _66  and  _67
REMARK   28  A    between atoms: _67  and  _68
REMARK   29  A    between atoms: _73  and  _74
REMARK   30  A    between atoms: _79  and  _81
REMARK   31  A    between atoms: _81  and  _82
REMARK   32  A    between atoms: _81  and  _84
REMARK   33  A    between atoms: _87  and  _89
REMARK   34  A    between atoms: _89  and  _90
REMARK   35  A    between atoms: _89  and  _92
REMARK   36  A    between atoms: _92  and  _93
REMARK   37  A    between atoms: _96  and  _98
REMARK   38  A    between atoms: _98  and  _99
REMARK   39  A    between atoms: _98  and  _101
REMARK   40  A    between atoms: _101  and  _102
REMARK   41  A    between atoms: _102  and  _103
REMARK   42  A    between atoms: _106  and  _108
REMARK   43  A    between atoms: _108  and  _109
REMARK   44  A    between atoms: _108  and  _111
REMARK   45  A    between atoms: _114  and  _116
REMARK   46  A    between atoms: _116  and  _117
REMARK   47  A    between atoms: _116  and  _119
REMARK   48  A    between atoms: _119  and  _120
REMARK   49  A    between atoms: _123  and  _125
REMARK   50  A    between atoms: _125  and  _126
REMARK   51  A    between atoms: _125  and  _128
REMARK   52  A    between atoms: _128  and  _129
REMARK   53  A    between atoms: _134  and  _135
REMARK   54  A    between atoms: _137  and  _139
REMARK   55  A    between atoms: _139  and  _140
REMARK   56  A    between atoms: _139  and  _142
REMARK   57  A    between atoms: _142  and  _143
REMARK   58  A    between atoms: _146  and  _148
REMARK   59  A    between atoms: _148  and  _149
REMARK   60  A    between atoms: _148  and  _151
REMARK   61  A    between atoms: _151  and  _152
REMARK   62  A    between atoms: _152  and  _153
REMARK   63  A    between atoms: _155  and  _157
REMARK   64  A    between atoms: _157  and  _158
REMARK   65  A    between atoms: _157  and  _160
REMARK   66  A    between atoms: _160  and  _161
REMARK   67  A    between atoms: _164  and  _166
REMARK   68  A    between atoms: _166  and  _167
REMARK   69  A    between atoms: _166  and  _169
REMARK   70  A    between atoms: _169  and  _170
REMARK   71  A    between atoms: _172  and  _174
REMARK   72  A    between atoms: _174  and  _175
REMARK   73  A    between atoms: _174  and  _177
REMARK   74  A    between atoms: _177  and  _178
REMARK   75  A    between atoms: _181  and  _183
REMARK   76  A    between atoms: _183  and  _184
REMARK   77  A    between atoms: _183  and  _186
REMARK   78  A    between atoms: _188  and  _190
REMARK   79  A    between atoms: _190  and  _191
REMARK   80  A    between atoms: _190  and  _193
REMARK   81  A    between atoms: _193  and  _194
REMARK   82  A    between atoms: _199  and  _201
REMARK   83  A    between atoms: _201  and  _202
REMARK   84  A    between atoms: _205  and  _207
REMARK   85  A    between atoms: _207  and  _208
REMARK   86  A    between atoms: _207  and  _210
REMARK   87  A    between atoms: _210  and  _211
REMARK   88  A    between atoms: _214  and  _216
REMARK   89  A    between atoms: _216  and  _217
REMARK   90  A    between atoms: _216  and  _219
REMARK   91  A    between atoms: _219  and  _220
REMARK   92  A    between atoms: _220  and  _221
REMARK   93  A    between atoms: _224  and  _226
REMARK   94  A    between atoms: _226  and  _227
REMARK   95  A    between atoms: _226  and  _229
REMARK   96  A    between atoms: _229  and  _230
REMARK   97  A    between atoms: _235  and  _236
REMARK   98  A    between atoms: _238  and  _240
REMARK   99  A    between atoms: _240  and  _241
REMARK  100  A    between atoms: _240  and  _243
REMARK  101  A    between atoms: _243  and  _244
REMARK  102  A    between atoms: _249  and  _251
REMARK  103  A    between atoms: _251  and  _252
REMARK  104  A    between atoms: _254  and  _256
REMARK  105  A    between atoms: _256  and  _257
REMARK  106  A    between atoms: _256  and  _259
REMARK  107  A    between atoms: _259  and  _260
REMARK  108  A    between atoms: _263  and  _265
REMARK  109  A    between atoms: _265  and  _266
REMARK  110  A    between atoms: _265  and  _268
REMARK  111  A    between atoms: _268  and  _269
REMARK  112  A    between atoms: _272  and  _274
REMARK  113  A    between atoms: _274  and  _275
REMARK  114  A    between atoms: _274  and  _277
REMARK  115  A    between atoms: _277  and  _278
REMARK  116  A    between atoms: _281  and  _283
REMARK  117  A    between atoms: _283  and  _284
REMARK  118  A    between atoms: _283  and  _286
REMARK  119  A    between atoms: _286  and  _287
REMARK  120  A    between atoms: _287  and  _288
REMARK  121  A    between atoms: _288  and  _289
REMARK  122  A    between atoms: _298  and  _300
REMARK  123  A    between atoms: _300  and  _301
REMARK                            x       y       z     vdW  Elec       q    Type
REMARK                         _______ _______ _______ _____ _____    ______ ____
ROOT
ATOM      1  O   HOH     1     -18.061  21.995   7.722  0.00  0.00    +0.000 OA
ENDROOT
TORSDOF 0
REMARK  Name = ../refined-set-2016/4tte/4tte_pocket.pdb
REMARK  123 active torsions:
REMARK  status: ('A' for Active; 'I' for Inactive)
REMARK    1  A    between atoms: _1  and  _3
REMARK    2  A    between atoms: _3  and  _4
REMARK    3  A    between atoms: _3  and  _6
REMARK    4  A    between atoms: _6  and  _7
REMARK    5  A    between atoms: _13  and  _15
REMARK    6  A    between atoms: _15  and  _16
REMARK    7  A    between atoms: _15  and  _18
REMARK    8  A    between atoms: _18  and  _19
REMARK    9  A    between atoms: _19  and  _20
REMARK   10  A    between atoms: _20  and  _21
REMARK   11  A    between atoms: _30  and  _32
REMARK   12  A    between atoms: _32  and  _33
REMARK   13  A    between atoms: _32  and  _35
REMARK   14  A    between atoms: _38  and  _40
REMARK   15  A    between atoms: _40  and  _41
REMARK   16  A    between atoms: _40  and  _43
REMARK   17  A    between atoms: _43  and  _44
REMARK   18  A    between atoms: _50  and  _52
REMARK   19  A    between atoms: _52  and  _53
REMARK   20  A    between atoms: _52  and  _55
REMARK   21  A    between atoms: _55  and  _56
REMARK   22  A    between atoms: _59  and  _61
REMARK   23  A    between atoms: _61  and  _62
REMARK   24  A    between atoms: _61  and  _64
REMARK   25  A    between atoms: _64  and  _65
REMARK   26  A    between atoms: _65  and  _66
REMARK   27  A    between atoms: _66  and  _67
REMARK   28  A    between atoms: _67  and  _68
REMARK   29  A    between atoms: _73  and  _74
REMARK   30  A    between atoms: _79  and  _81
REMARK   31  A    between atoms: _81  and  _82
REMARK   32  A    between atoms: _81  and  _84
REMARK   33  A    between atoms: _87  and  _89
REMARK   34  A    between atoms: _89  and  _90
REMARK   35  A    between atoms: _89  and  _92
REMARK   36  A    between atoms: _92  and  _93
REMARK   37  A    between atoms: _96  and  _98
REMARK   38  A    between atoms: _98  and  _99
REMARK   39  A    between atoms: _98  and  _101
REMARK   40  A    between atoms: _101  and  _102
REMARK   41  A    between atoms: _102  and  _103
REMARK   42  A    between atoms: _106  and  _108
REMARK   43  A    between atoms: _108  and  _109
REMARK   44  A    between atoms: _108  and  _111
REMARK   45  A    between atoms: _114  and  _116
REMARK   46  A    between atoms: _116  and  _117
REMARK   47  A    between atoms: _116  and  _119
REMARK   48  A    between atoms: _119  and  _120
REMARK   49  A    between atoms: _123  and  _125
REMARK   50  A    between atoms: _125  and  _126
REMARK   51  A    between atoms: _125  and  _128
REMARK   52  A    between atoms: _128  and  _129
REMARK   53  A    between atoms: _134  and  _135
REMARK   54  A    between atoms: _137  and  _139
REMARK   55  A    between atoms: _139  and  _140
REMARK   56  A    between atoms: _139  and  _142
REMARK   57  A    between atoms: _142  and  _143
REMARK   58  A    between atoms: _146  and  _148
REMARK   59  A    between atoms: _148  and  _149
REMARK   60  A    between atoms: _148  and  _151
REMARK   61  A    between atoms: _151  and  _152
REMARK   62  A    between atoms: _152  and  _153
REMARK   63  A    between atoms: _155  and  _157
REMARK   64  A    between atoms: _157  and  _158
REMARK   65  A    between atoms: _157  and  _160
REMARK   66  A    between atoms: _160  and  _161
REMARK   67  A    between atoms: _164  and  _166
REMARK   68  A    between atoms: _166  and  _167
REMARK   69  A    between atoms: _166  and  _169
REMARK   70  A    between atoms: _169  and  _170
REMARK   71  A    between atoms: _172  and  _174
REMARK   72  A    between atoms: _174  and  _175
REMARK   73  A    between atoms: _174  and  _177
REMARK   74  A    between atoms: _177  and  _178
REMARK   75  A    between atoms: _181  and  _183
REMARK   76  A    between atoms: _183  and  _184
REMARK   77  A    between atoms: _183  and  _186
REMARK   78  A    between atoms: _188  and  _190
REMARK   79  A    between atoms: _190  and  _191
REMARK   80  A    between atoms: _190  and  _193
REMARK   81  A    between atoms: _193  and  _194
REMARK   82  A    between atoms: _199  and  _201
REMARK   83  A    between atoms: _201  and  _202
REMARK   84  A    between atoms: _205  and  _207
REMARK   85  A    between atoms: _207  and  _208
REMARK   86  A    between atoms: _207  and  _210
REMARK   87  A    between atoms: _210  and  _211
REMARK   88  A    between atoms: _214  and  _216
REMARK   89  A    between atoms: _216  and  _217
REMARK   90  A    between atoms: _216  and  _219
REMARK   91  A    between atoms: _219  and  _220
REMARK   92  A    between atoms: _220  and  _221
REMARK   93  A    between atoms: _224  and  _226
REMARK   94  A    between atoms: _226  and  _227
REMARK   95  A    between atoms: _226  and  _229
REMARK   96  A    between atoms: _229  and  _230
REMARK   97  A    between atoms: _235  and  _236
REMARK   98  A    between atoms: _238  and  _240
REMARK   99  A    between atoms: _240  and  _241
REMARK  100  A    between atoms: _240  and  _243
REMARK  101  A    between atoms: _243  and  _244
REMARK  102  A    between atoms: _249  and  _251
REMARK  103  A    between atoms: _251  and  _252
REMARK  104  A    between atoms: _254  and  _256
REMARK  105  A    between atoms: _256  and  _257
REMARK  106  A    between atoms: _256  and  _259
REMARK  107  A    between atoms: _259  and  _260
REMARK  108  A    between atoms: _263  and  _265
REMARK  109  A    between atoms: _265  and  _266
REMARK  110  A    between atoms: _265  and  _268
REMARK  111  A    between atoms: _268  and  _269
REMARK  112  A    between atoms: _272  and  _274
REMARK  113  A    between atoms: _274  and  _275
REMARK  114  A    between atoms: _274  and  _277
REMARK  115  A    between atoms: _277  and  _278
REMARK  116  A    between atoms: _281  and  _283
REMARK  117  A    between atoms: _283  and  _284
REMARK  118  A    between atoms: _283  and  _286
REMARK  119  A    between atoms: _286  and  _287
REMARK  120  A    between atoms: _287  and  _288
REMARK  121  A    between atoms: _288  and  _289
REMARK  122  A    between atoms: _298  and  _300
REMARK  123  A    between atoms: _300  and  _301
REMARK                            x       y       z     vdW  Elec       q    Type
REMARK                         _______ _______ _______ _____ _____    ______ ____
ROOT
ATOM      1  O   HOH     1     -20.406  18.556  12.615  0.00  0.00    +0.000 OA
ENDROOT
TORSDOF 0
REMARK  Name = ../refined-set-2016/4tte/4tte_pocket.pdb
REMARK  123 active torsions:
REMARK  status: ('A' for Active; 'I' for Inactive)
REMARK    1  A    between atoms: _1  and  _3
REMARK    2  A    between atoms: _3  and  _4
REMARK    3  A    between atoms: _3  and  _6
REMARK    4  A    between atoms: _6  and  _7
REMARK    5  A    between atoms: _13  and  _15
REMARK    6  A    between atoms: _15  and  _16
REMARK    7  A    between atoms: _15  and  _18
REMARK    8  A    between atoms: _18  and  _19
REMARK    9  A    between atoms: _19  and  _20
REMARK   10  A    between atoms: _20  and  _21
REMARK   11  A    between atoms: _30  and  _32
REMARK   12  A    between atoms: _32  and  _33
REMARK   13  A    between atoms: _32  and  _35
REMARK   14  A    between atoms: _38  and  _40
REMARK   15  A    between atoms: _40  and  _41
REMARK   16  A    between atoms: _40  and  _43
REMARK   17  A    between atoms: _43  and  _44
REMARK   18  A    between atoms: _50  and  _52
REMARK   19  A    between atoms: _52  and  _53
REMARK   20  A    between atoms: _52  and  _55
REMARK   21  A    between atoms: _55  and  _56
REMARK   22  A    between atoms: _59  and  _61
REMARK   23  A    between atoms: _61  and  _62
REMARK   24  A    between atoms: _61  and  _64
REMARK   25  A    between atoms: _64  and  _65
REMARK   26  A    between atoms: _65  and  _66
REMARK   27  A    between atoms: _66  and  _67
REMARK   28  A    between atoms: _67  and  _68
REMARK   29  A    between atoms: _73  and  _74
REMARK   30  A    between atoms: _79  and  _81
REMARK   31  A    between atoms: _81  and  _82
REMARK   32  A    between atoms: _81  and  _84
REMARK   33  A    between atoms: _87  and  _89
REMARK   34  A    between atoms: _89  and  _90
REMARK   35  A    between atoms: _89  and  _92
REMARK   36  A    between atoms: _92  and  _93
REMARK   37  A    between atoms: _96  and  _98
REMARK   38  A    between atoms: _98  and  _99
REMARK   39  A    between atoms: _98  and  _101
REMARK   40  A    between atoms: _101  and  _102
REMARK   41  A    between atoms: _102  and  _103
REMARK   42  A    between atoms: _106  and  _108
REMARK   43  A    between atoms: _108  and  _109
REMARK   44  A    between atoms: _108  and  _111
REMARK   45  A    between atoms: _114  and  _116
REMARK   46  A    between atoms: _116  and  _117
REMARK   47  A    between atoms: _116  and  _119
REMARK   48  A    between atoms: _119  and  _120
REMARK   49  A    between atoms: _123  and  _125
REMARK   50  A    between atoms: _125  and  _126
REMARK   51  A    between atoms: _125  and  _128
REMARK   52  A    between atoms: _128  and  _129
REMARK   53  A    between atoms: _134  and  _135
REMARK   54  A    between atoms: _137  and  _139
REMARK   55  A    between atoms: _139  and  _140
REMARK   56  A    between atoms: _139  and  _142
REMARK   57  A    between atoms: _142  and  _143
REMARK   58  A    between atoms: _146  and  _148
REMARK   59  A    between atoms: _148  and  _149
REMARK   60  A    between atoms: _148  and  _151
REMARK   61  A    between atoms: _151  and  _152
REMARK   62  A    between atoms: _152  and  _153
REMARK   63  A    between atoms: _155  and  _157
REMARK   64  A    between atoms: _157  and  _158
REMARK   65  A    between atoms: _157  and  _160
REMARK   66  A    between atoms: _160  and  _161
REMARK   67  A    between atoms: _164  and  _166
REMARK   68  A    between atoms: _166  and  _167
REMARK   69  A    between atoms: _166  and  _169
REMARK   70  A    between atoms: _169  and  _170
REMARK   71  A    between atoms: _172  and  _174
REMARK   72  A    between atoms: _174  and  _175
REMARK   73  A    between atoms: _174  and  _177
REMARK   74  A    between atoms: _177  and  _178
REMARK   75  A    between atoms: _181  and  _183
REMARK   76  A    between atoms: _183  and  _184
REMARK   77  A    between atoms: _183  and  _186
REMARK   78  A    between atoms: _188  and  _190
REMARK   79  A    between atoms: _190  and  _191
REMARK   80  A    between atoms: _190  and  _193
REMARK   81  A    between atoms: _193  and  _194
REMARK   82  A    between atoms: _199  and  _201
REMARK   83  A    between atoms: _201  and  _202
REMARK   84  A    between atoms: _205  and  _207
REMARK   85  A    between atoms: _207  and  _208
REMARK   86  A    between atoms: _207  and  _210
REMARK   87  A    between atoms: _210  and  _211
REMARK   88  A    between atoms: _214  and  _216
REMARK   89  A    between atoms: _216  and  _217
REMARK   90  A    between atoms: _216  and  _219
REMARK   91  A    between atoms: _219  and  _220
REMARK   92  A    between atoms: _220  and  _221
REMARK   93  A    between atoms: _224  and  _226
REMARK   94  A    between atoms: _226  and  _227
REMARK   95  A    between atoms: _226  and  _229
REMARK   96  A    between atoms: _229  and  _230
REMARK   97  A    between atoms: _235  and  _236
REMARK   98  A    between atoms: _238  and  _240
REMARK   99  A    between atoms: _240  and  _241
REMARK  100  A    between atoms: _240  and  _243
REMARK  101  A    between atoms: _243  and  _244
REMARK  102  A    between atoms: _249  and  _251
REMARK  103  A    between atoms: _251  and  _252
REMARK  104  A    between atoms: _254  and  _256
REMARK  105  A    between atoms: _256  and  _257
REMARK  106  A    between atoms: _256  and  _259
REMARK  107  A    between atoms: _259  and  _260
REMARK  108  A    between atoms: _263  and  _265
REMARK  109  A    between atoms: _265  and  _266
REMARK  110  A    between atoms: _265  and  _268
REMARK  111  A    between atoms: _268  and  _269
REMARK  112  A    between atoms: _272  and  _274
REMARK  113  A    between atoms: _274  and  _275
REMARK  114  A    between atoms: _274  and  _277
REMARK  115  A    between atoms: _277  and  _278
REMARK  116  A    between atoms: _281  and  _283
REMARK  117  A    between atoms: _283  and  _284
REMARK  118  A    between atoms: _283  and  _286
REMARK  119  A    between atoms: _286  and  _287
REMARK  120  A    between atoms: _287  and  _288
REMARK  121  A    between atoms: _288  and  _289
REMARK  122  A    between atoms: _298  and  _300
REMARK  123  A    between atoms: _300  and  _301
REMARK                            x       y       z     vdW  Elec       q    Type
REMARK                         _______ _______ _______ _____ _____    ______ ____
ROOT
ATOM      1  O   HOH     1      -9.825  24.536   1.692  0.00  0.00    +0.000 OA
ENDROOT
TORSDOF 0
REMARK  Name = ../refined-set-2016/4tte/4tte_pocket.pdb
REMARK  123 active torsions:
REMARK  status: ('A' for Active; 'I' for Inactive)
REMARK    1  A    between atoms: _1  and  _3
REMARK    2  A    between atoms: _3  and  _4
REMARK    3  A    between atoms: _3  and  _6
REMARK    4  A    between atoms: _6  and  _7
REMARK    5  A    between atoms: _13  and  _15
REMARK    6  A    between atoms: _15  and  _16
REMARK    7  A    between atoms: _15  and  _18
REMARK    8  A    between atoms: _18  and  _19
REMARK    9  A    between atoms: _19  and  _20
REMARK   10  A    between atoms: _20  and  _21
REMARK   11  A    between atoms: _30  and  _32
REMARK   12  A    between atoms: _32  and  _33
REMARK   13  A    between atoms: _32  and  _35
REMARK   14  A    between atoms: _38  and  _40
REMARK   15  A    between atoms: _40  and  _41
REMARK   16  A    between atoms: _40  and  _43
REMARK   17  A    between atoms: _43  and  _44
REMARK   18  A    between atoms: _50  and  _52
REMARK   19  A    between atoms: _52  and  _53
REMARK   20  A    between atoms: _52  and  _55
REMARK   21  A    between atoms: _55  and  _56
REMARK   22  A    between atoms: _59  and  _61
REMARK   23  A    between atoms: _61  and  _62
REMARK   24  A    between atoms: _61  and  _64
REMARK   25  A    between atoms: _64  and  _65
REMARK   26  A    between atoms: _65  and  _66
REMARK   27  A    between atoms: _66  and  _67
REMARK   28  A    between atoms: _67  and  _68
REMARK   29  A    between atoms: _73  and  _74
REMARK   30  A    between atoms: _79  and  _81
REMARK   31  A    between atoms: _81  and  _82
REMARK   32  A    between atoms: _81  and  _84
REMARK   33  A    between atoms: _87  and  _89
REMARK   34  A    between atoms: _89  and  _90
REMARK   35  A    between atoms: _89  and  _92
REMARK   36  A    between atoms: _92  and  _93
REMARK   37  A    between atoms: _96  and  _98
REMARK   38  A    between atoms: _98  and  _99
REMARK   39  A    between atoms: _98  and  _101
REMARK   40  A    between atoms: _101  and  _102
REMARK   41  A    between atoms: _102  and  _103
REMARK   42  A    between atoms: _106  and  _108
REMARK   43  A    between atoms: _108  and  _109
REMARK   44  A    between atoms: _108  and  _111
REMARK   45  A    between atoms: _114  and  _116
REMARK   46  A    between atoms: _116  and  _117
REMARK   47  A    between atoms: _116  and  _119
REMARK   48  A    between atoms: _119  and  _120
REMARK   49  A    between atoms: _123  and  _125
REMARK   50  A    between atoms: _125  and  _126
REMARK   51  A    between atoms: _125  and  _128
REMARK   52  A    between atoms: _128  and  _129
REMARK   53  A    between atoms: _134  and  _135
REMARK   54  A    between atoms: _137  and  _139
REMARK   55  A    between atoms: _139  and  _140
REMARK   56  A    between atoms: _139  and  _142
REMARK   57  A    between atoms: _142  and  _143
REMARK   58  A    between atoms: _146  and  _148
REMARK   59  A    between atoms: _148  and  _149
REMARK   60  A    between atoms: _148  and  _151
REMARK   61  A    between atoms: _151  and  _152
REMARK   62  A    between atoms: _152  and  _153
REMARK   63  A    between atoms: _155  and  _157
REMARK   64  A    between atoms: _157  and  _158
REMARK   65  A    between atoms: _157  and  _160
REMARK   66  A    between atoms: _160  and  _161
REMARK   67  A    between atoms: _164  and  _166
REMARK   68  A    between atoms: _166  and  _167
REMARK   69  A    between atoms: _166  and  _169
REMARK   70  A    between atoms: _169  and  _170
REMARK   71  A    between atoms: _172  and  _174
REMARK   72  A    between atoms: _174  and  _175
REMARK   73  A    between atoms: _174  and  _177
REMARK   74  A    between atoms: _177  and  _178
REMARK   75  A    between atoms: _181  and  _183
REMARK   76  A    between atoms: _183  and  _184
REMARK   77  A    between atoms: _183  and  _186
REMARK   78  A    between atoms: _188  and  _190
REMARK   79  A    between atoms: _190  and  _191
REMARK   80  A    between atoms: _190  and  _193
REMARK   81  A    between atoms: _193  and  _194
REMARK   82  A    between atoms: _199  and  _201
REMARK   83  A    between atoms: _201  and  _202
REMARK   84  A    between atoms: _205  and  _207
REMARK   85  A    between atoms: _207  and  _208
REMARK   86  A    between atoms: _207  and  _210
REMARK   87  A    between atoms: _210  and  _211
REMARK   88  A    between atoms: _214  and  _216
REMARK   89  A    between atoms: _216  and  _217
REMARK   90  A    between atoms: _216  and  _219
REMARK   91  A    between atoms: _219  and  _220
REMARK   92  A    between atoms: _220  and  _221
REMARK   93  A    between atoms: _224  and  _226
REMARK   94  A    between atoms: _226  and  _227
REMARK   95  A    between atoms: _226  and  _229
REMARK   96  A    between atoms: _229  and  _230
REMARK   97  A    between atoms: _235  and  _236
REMARK   98  A    between atoms: _238  and  _240
REMARK   99  A    between atoms: _240  and  _241
REMARK  100  A    between atoms: _240  and  _243
REMARK  101  A    between atoms: _243  and  _244
REMARK  102  A    between atoms: _249  and  _251
REMARK  103  A    between atoms: _251  and  _252
REMARK  104  A    between atoms: _254  and  _256
REMARK  105  A    between atoms: _256  and  _257
REMARK  106  A    between atoms: _256  and  _259
REMARK  107  A    between atoms: _259  and  _260
REMARK  108  A    between atoms: _263  and  _265
REMARK  109  A    between atoms: _265  and  _266
REMARK  110  A    between atoms: _265  and  _268
REMARK  111  A    between atoms: _268  and  _269
REMARK  112  A    between atoms: _272  and  _274
REMARK  113  A    between atoms: _274  and  _275
REMARK  114  A    between atoms: _274  and  _277
REMARK  115  A    between atoms: _277  and  _278
REMARK  116  A    between atoms: _281  and  _283
REMARK  117  A    between atoms: _283  and  _284
REMARK  118  A    between atoms: _283  and  _286
REMARK  119  A    between atoms: _286  and  _287
REMARK  120  A    between atoms: _287  and  _288
REMARK  121  A    between atoms: _288  and  _289
REMARK  122  A    between atoms: _298  and  _300
REMARK  123  A    between atoms: _300  and  _301
REMARK                            x       y       z     vdW  Elec       q    Type
REMARK                         _______ _______ _______ _____ _____    ______ ____
ROOT
ATOM      1  O   HOH     1     -10.831  27.314   5.797  0.00  0.00    +0.000 OA
ENDROOT
TORSDOF 0
REMARK  Name = ../refined-set-2016/4tte/4tte_pocket.pdb
REMARK  123 active torsions:
REMARK  status: ('A' for Active; 'I' for Inactive)
REMARK    1  A    between atoms: _1  and  _3
REMARK    2  A    between atoms: _3  and  _4
REMARK    3  A    between atoms: _3  and  _6
REMARK    4  A    between atoms: _6  and  _7
REMARK    5  A    between atoms: _13  and  _15
REMARK    6  A    between atoms: _15  and  _16
REMARK    7  A    between atoms: _15  and  _18
REMARK    8  A    between atoms: _18  and  _19
REMARK    9  A    between atoms: _19  and  _20
REMARK   10  A    between atoms: _20  and  _21
REMARK   11  A    between atoms: _30  and  _32
REMARK   12  A    between atoms: _32  and  _33
REMARK   13  A    between atoms: _32  and  _35
REMARK   14  A    between atoms: _38  and  _40
REMARK   15  A    between atoms: _40  and  _41
REMARK   16  A    between atoms: _40  and  _43
REMARK   17  A    between atoms: _43  and  _44
REMARK   18  A    between atoms: _50  and  _52
REMARK   19  A    between atoms: _52  and  _53
REMARK   20  A    between atoms: _52  and  _55
REMARK   21  A    between atoms: _55  and  _56
REMARK   22  A    between atoms: _59  and  _61
REMARK   23  A    between atoms: _61  and  _62
REMARK   24  A    between atoms: _61  and  _64
REMARK   25  A    between atoms: _64  and  _65
REMARK   26  A    between atoms: _65  and  _66
REMARK   27  A    between atoms: _66  and  _67
REMARK   28  A    between atoms: _67  and  _68
REMARK   29  A    between atoms: _73  and  _74
REMARK   30  A    between atoms: _79  and  _81
REMARK   31  A    between atoms: _81  and  _82
REMARK   32  A    between atoms: _81  and  _84
REMARK   33  A    between atoms: _87  and  _89
REMARK   34  A    between atoms: _89  and  _90
REMARK   35  A    between atoms: _89  and  _92
REMARK   36  A    between atoms: _92  and  _93
REMARK   37  A    between atoms: _96  and  _98
REMARK   38  A    between atoms: _98  and  _99
REMARK   39  A    between atoms: _98  and  _101
REMARK   40  A    between atoms: _101  and  _102
REMARK   41  A    between atoms: _102  and  _103
REMARK   42  A    between atoms: _106  and  _108
REMARK   43  A    between atoms: _108  and  _109
REMARK   44  A    between atoms: _108  and  _111
REMARK   45  A    between atoms: _114  and  _116
REMARK   46  A    between atoms: _116  and  _117
REMARK   47  A    between atoms: _116  and  _119
REMARK   48  A    between atoms: _119  and  _120
REMARK   49  A    between atoms: _123  and  _125
REMARK   50  A    between atoms: _125  and  _126
REMARK   51  A    between atoms: _125  and  _128
REMARK   52  A    between atoms: _128  and  _129
REMARK   53  A    between atoms: _134  and  _135
REMARK   54  A    between atoms: _137  and  _139
REMARK   55  A    between atoms: _139  and  _140
REMARK   56  A    between atoms: _139  and  _142
REMARK   57  A    between atoms: _142  and  _143
REMARK   58  A    between atoms: _146  and  _148
REMARK   59  A    between atoms: _148  and  _149
REMARK   60  A    between atoms: _148  and  _151
REMARK   61  A    between atoms: _151  and  _152
REMARK   62  A    between atoms: _152  and  _153
REMARK   63  A    between atoms: _155  and  _157
REMARK   64  A    between atoms: _157  and  _158
REMARK   65  A    between atoms: _157  and  _160
REMARK   66  A    between atoms: _160  and  _161
REMARK   67  A    between atoms: _164  and  _166
REMARK   68  A    between atoms: _166  and  _167
REMARK   69  A    between atoms: _166  and  _169
REMARK   70  A    between atoms: _169  and  _170
REMARK   71  A    between atoms: _172  and  _174
REMARK   72  A    between atoms: _174  and  _175
REMARK   73  A    between atoms: _174  and  _177
REMARK   74  A    between atoms: _177  and  _178
REMARK   75  A    between atoms: _181  and  _183
REMARK   76  A    between atoms: _183  and  _184
REMARK   77  A    between atoms: _183  and  _186
REMARK   78  A    between atoms: _188  and  _190
REMARK   79  A    between atoms: _190  and  _191
REMARK   80  A    between atoms: _190  and  _193
REMARK   81  A    between atoms: _193  and  _194
REMARK   82  A    between atoms: _199  and  _201
REMARK   83  A    between atoms: _201  and  _202
REMARK   84  A    between atoms: _205  and  _207
REMARK   85  A    between atoms: _207  and  _208
REMARK   86  A    between atoms: _207  and  _210
REMARK   87  A    between atoms: _210  and  _211
REMARK   88  A    between atoms: _214  and  _216
REMARK   89  A    between atoms: _216  and  _217
REMARK   90  A    between atoms: _216  and  _219
REMARK   91  A    between atoms: _219  and  _220
REMARK   92  A    between atoms: _220  and  _221
REMARK   93  A    between atoms: _224  and  _226
REMARK   94  A    between atoms: _226  and  _227
REMARK   95  A    between atoms: _226  and  _229
REMARK   96  A    between atoms: _229  and  _230
REMARK   97  A    between atoms: _235  and  _236
REMARK   98  A    between atoms: _238  and  _240
REMARK   99  A    between atoms: _240  and  _241
REMARK  100  A    between atoms: _240  and  _243
REMARK  101  A    between atoms: _243  and  _244
REMARK  102  A    between atoms: _249  and  _251
REMARK  103  A    between atoms: _251  and  _252
REMARK  104  A    between atoms: _254  and  _256
REMARK  105  A    between atoms: _256  and  _257
REMARK  106  A    between atoms: _256  and  _259
REMARK  107  A    between atoms: _259  and  _260
REMARK  108  A    between atoms: _263  and  _265
REMARK  109  A    between atoms: _265  and  _266
REMARK  110  A    between atoms: _265  and  _268
REMARK  111  A    between atoms: _268  and  _269
REMARK  112  A    between atoms: _272  and  _274
REMARK  113  A    between atoms: _274  and  _275
REMARK  114  A    between atoms: _274  and  _277
REMARK  115  A    between atoms: _277  and  _278
REMARK  116  A    between atoms: _281  and  _283
REMARK  117  A    between atoms: _283  and  _284
REMARK  118  A    between atoms: _283  and  _286
REMARK  119  A    between atoms: _286  and  _287
REMARK  120  A    between atoms: _287  and  _288
REMARK  121  A    between atoms: _288  and  _289
REMARK  122  A    between atoms: _298  and  _300
REMARK  123  A    between atoms: _300  and  _301
REMARK                            x       y       z     vdW  Elec       q    Type
REMARK                         _______ _______ _______ _____ _____    ______ ____
ROOT
ATOM      1  O   HOH     1      -9.340  25.616   6.674  0.00  0.00    +0.000 OA
ENDROOT
TORSDOF 0
REMARK  Name = ../refined-set-2016/4tte/4tte_pocket.pdb
REMARK  123 active torsions:
REMARK  status: ('A' for Active; 'I' for Inactive)
REMARK    1  A    between atoms: _1  and  _3
REMARK    2  A    between atoms: _3  and  _4
REMARK    3  A    between atoms: _3  and  _6
REMARK    4  A    between atoms: _6  and  _7
REMARK    5  A    between atoms: _13  and  _15
REMARK    6  A    between atoms: _15  and  _16
REMARK    7  A    between atoms: _15  and  _18
REMARK    8  A    between atoms: _18  and  _19
REMARK    9  A    between atoms: _19  and  _20
REMARK   10  A    between atoms: _20  and  _21
REMARK   11  A    between atoms: _30  and  _32
REMARK   12  A    between atoms: _32  and  _33
REMARK   13  A    between atoms: _32  and  _35
REMARK   14  A    between atoms: _38  and  _40
REMARK   15  A    between atoms: _40  and  _41
REMARK   16  A    between atoms: _40  and  _43
REMARK   17  A    between atoms: _43  and  _44
REMARK   18  A    between atoms: _50  and  _52
REMARK   19  A    between atoms: _52  and  _53
REMARK   20  A    between atoms: _52  and  _55
REMARK   21  A    between atoms: _55  and  _56
REMARK   22  A    between atoms: _59  and  _61
REMARK   23  A    between atoms: _61  and  _62
REMARK   24  A    between atoms: _61  and  _64
REMARK   25  A    between atoms: _64  and  _65
REMARK   26  A    between atoms: _65  and  _66
REMARK   27  A    between atoms: _66  and  _67
REMARK   28  A    between atoms: _67  and  _68
REMARK   29  A    between atoms: _73  and  _74
REMARK   30  A    between atoms: _79  and  _81
REMARK   31  A    between atoms: _81  and  _82
REMARK   32  A    between atoms: _81  and  _84
REMARK   33  A    between atoms: _87  and  _89
REMARK   34  A    between atoms: _89  and  _90
REMARK   35  A    between atoms: _89  and  _92
REMARK   36  A    between atoms: _92  and  _93
REMARK   37  A    between atoms: _96  and  _98
REMARK   38  A    between atoms: _98  and  _99
REMARK   39  A    between atoms: _98  and  _101
REMARK   40  A    between atoms: _101  and  _102
REMARK   41  A    between atoms: _102  and  _103
REMARK   42  A    between atoms: _106  and  _108
REMARK   43  A    between atoms: _108  and  _109
REMARK   44  A    between atoms: _108  and  _111
REMARK   45  A    between atoms: _114  and  _116
REMARK   46  A    between atoms: _116  and  _117
REMARK   47  A    between atoms: _116  and  _119
REMARK   48  A    between atoms: _119  and  _120
REMARK   49  A    between atoms: _123  and  _125
REMARK   50  A    between atoms: _125  and  _126
REMARK   51  A    between atoms: _125  and  _128
REMARK   52  A    between atoms: _128  and  _129
REMARK   53  A    between atoms: _134  and  _135
REMARK   54  A    between atoms: _137  and  _139
REMARK   55  A    between atoms: _139  and  _140
REMARK   56  A    between atoms: _139  and  _142
REMARK   57  A    between atoms: _142  and  _143
REMARK   58  A    between atoms: _146  and  _148
REMARK   59  A    between atoms: _148  and  _149
REMARK   60  A    between atoms: _148  and  _151
REMARK   61  A    between atoms: _151  and  _152
REMARK   62  A    between atoms: _152  and  _153
REMARK   63  A    between atoms: _155  and  _157
REMARK   64  A    between atoms: _157  and  _158
REMARK   65  A    between atoms: _157  and  _160
REMARK   66  A    between atoms: _160  and  _161
REMARK   67  A    between atoms: _164  and  _166
REMARK   68  A    between atoms: _166  and  _167
REMARK   69  A    between atoms: _166  and  _169
REMARK   70  A    between atoms: _169  and  _170
REMARK   71  A    between atoms: _172  and  _174
REMARK   72  A    between atoms: _174  and  _175
REMARK   73  A    between atoms: _174  and  _177
REMARK   74  A    between atoms: _177  and  _178
REMARK   75  A    between atoms: _181  and  _183
REMARK   76  A    between atoms: _183  and  _184
REMARK   77  A    between atoms: _183  and  _186
REMARK   78  A    between atoms: _188  and  _190
REMARK   79  A    between atoms: _190  and  _191
REMARK   80  A    between atoms: _190  and  _193
REMARK   81  A    between atoms: _193  and  _194
REMARK   82  A    between atoms: _199  and  _201
REMARK   83  A    between atoms: _201  and  _202
REMARK   84  A    between atoms: _205  and  _207
REMARK   85  A    between atoms: _207  and  _208
REMARK   86  A    between atoms: _207  and  _210
REMARK   87  A    between atoms: _210  and  _211
REMARK   88  A    between atoms: _214  and  _216
REMARK   89  A    between atoms: _216  and  _217
REMARK   90  A    between atoms: _216  and  _219
REMARK   91  A    between atoms: _219  and  _220
REMARK   92  A    between atoms: _220  and  _221
REMARK   93  A    between atoms: _224  and  _226
REMARK   94  A    between atoms: _226  and  _227
REMARK   95  A    between atoms: _226  and  _229
REMARK   96  A    between atoms: _229  and  _230
REMARK   97  A    between atoms: _235  and  _236
REMARK   98  A    between atoms: _238  and  _240
REMARK   99  A    between atoms: _240  and  _241
REMARK  100  A    between atoms: _240  and  _243
REMARK  101  A    between atoms: _243  and  _244
REMARK  102  A    between atoms: _249  and  _251
REMARK  103  A    between atoms: _251  and  _252
REMARK  104  A    between atoms: _254  and  _256
REMARK  105  A    between atoms: _256  and  _257
REMARK  106  A    between atoms: _256  and  _259
REMARK  107  A    between atoms: _259  and  _260
REMARK  108  A    between atoms: _263  and  _265
REMARK  109  A    between atoms: _265  and  _266
REMARK  110  A    between atoms: _265  and  _268
REMARK  111  A    between atoms: _268  and  _269
REMARK  112  A    between atoms: _272  and  _274
REMARK  113  A    between atoms: _274  and  _275
REMARK  114  A    between atoms: _274  and  _277
REMARK  115  A    between atoms: _277  and  _278
REMARK  116  A    between atoms: _281  and  _283
REMARK  117  A    between atoms: _283  and  _284
REMARK  118  A    between atoms: _283  and  _286
REMARK  119  A    between atoms: _286  and  _287
REMARK  120  A    between atoms: _287  and  _288
REMARK  121  A    between atoms: _288  and  _289
REMARK  122  A    between atoms: _298  and  _300
REMARK  123  A    between atoms: _300  and  _301
REMARK                            x       y       z     vdW  Elec       q    Type
REMARK                         _______ _______ _______ _____ _____    ______ ____
ROOT
ATOM      1  O   HOH     1     -17.212  14.754   7.722  0.00  0.00    +0.000 OA
ENDROOT
TORSDOF 0
REMARK  Name = ../refined-set-2016/4tte/4tte_pocket.pdb
REMARK  123 active torsions:
REMARK  status: ('A' for Active; 'I' for Inactive)
REMARK    1  A    between atoms: _1  and  _3
REMARK    2  A    between atoms: _3  and  _4
REMARK    3  A    between atoms: _3  and  _6
REMARK    4  A    between atoms: _6  and  _7
REMARK    5  A    between atoms: _13  and  _15
REMARK    6  A    between atoms: _15  and  _16
REMARK    7  A    between atoms: _15  and  _18
REMARK    8  A    between atoms: _18  and  _19
REMARK    9  A    between atoms: _19  and  _20
REMARK   10  A    between atoms: _20  and  _21
REMARK   11  A    between atoms: _30  and  _32
REMARK   12  A    between atoms: _32  and  _33
REMARK   13  A    between atoms: _32  and  _35
REMARK   14  A    between atoms: _38  and  _40
REMARK   15  A    between atoms: _40  and  _41
REMARK   16  A    between atoms: _40  and  _43
REMARK   17  A    between atoms: _43  and  _44
REMARK   18  A    between atoms: _50  and  _52
REMARK   19  A    between atoms: _52  and  _53
REMARK   20  A    between atoms: _52  and  _55
REMARK   21  A    between atoms: _55  and  _56
REMARK   22  A    between atoms: _59  and  _61
REMARK   23  A    between atoms: _61  and  _62
REMARK   24  A    between atoms: _61  and  _64
REMARK   25  A    between atoms: _64  and  _65
REMARK   26  A    between atoms: _65  and  _66
REMARK   27  A    between atoms: _66  and  _67
REMARK   28  A    between atoms: _67  and  _68
REMARK   29  A    between atoms: _73  and  _74
REMARK   30  A    between atoms: _79  and  _81
REMARK   31  A    between atoms: _81  and  _82
REMARK   32  A    between atoms: _81  and  _84
REMARK   33  A    between atoms: _87  and  _89
REMARK   34  A    between atoms: _89  and  _90
REMARK   35  A    between atoms: _89  and  _92
REMARK   36  A    between atoms: _92  and  _93
REMARK   37  A    between atoms: _96  and  _98
REMARK   38  A    between atoms: _98  and  _99
REMARK   39  A    between atoms: _98  and  _101
REMARK   40  A    between atoms: _101  and  _102
REMARK   41  A    between atoms: _102  and  _103
REMARK   42  A    between atoms: _106  and  _108
REMARK   43  A    between atoms: _108  and  _109
REMARK   44  A    between atoms: _108  and  _111
REMARK   45  A    between atoms: _114  and  _116
REMARK   46  A    between atoms: _116  and  _117
REMARK   47  A    between atoms: _116  and  _119
REMARK   48  A    between atoms: _119  and  _120
REMARK   49  A    between atoms: _123  and  _125
REMARK   50  A    between atoms: _125  and  _126
REMARK   51  A    between atoms: _125  and  _128
REMARK   52  A    between atoms: _128  and  _129
REMARK   53  A    between atoms: _134  and  _135
REMARK   54  A    between atoms: _137  and  _139
REMARK   55  A    between atoms: _139  and  _140
REMARK   56  A    between atoms: _139  and  _142
REMARK   57  A    between atoms: _142  and  _143
REMARK   58  A    between atoms: _146  and  _148
REMARK   59  A    between atoms: _148  and  _149
REMARK   60  A    between atoms: _148  and  _151
REMARK   61  A    between atoms: _151  and  _152
REMARK   62  A    between atoms: _152  and  _153
REMARK   63  A    between atoms: _155  and  _157
REMARK   64  A    between atoms: _157  and  _158
REMARK   65  A    between atoms: _157  and  _160
REMARK   66  A    between atoms: _160  and  _161
REMARK   67  A    between atoms: _164  and  _166
REMARK   68  A    between atoms: _166  and  _167
REMARK   69  A    between atoms: _166  and  _169
REMARK   70  A    between atoms: _169  and  _170
REMARK   71  A    between atoms: _172  and  _174
REMARK   72  A    between atoms: _174  and  _175
REMARK   73  A    between atoms: _174  and  _177
REMARK   74  A    between atoms: _177  and  _178
REMARK   75  A    between atoms: _181  and  _183
REMARK   76  A    between atoms: _183  and  _184
REMARK   77  A    between atoms: _183  and  _186
REMARK   78  A    between atoms: _188  and  _190
REMARK   79  A    between atoms: _190  and  _191
REMARK   80  A    between atoms: _190  and  _193
REMARK   81  A    between atoms: _193  and  _194
REMARK   82  A    between atoms: _199  and  _201
REMARK   83  A    between atoms: _201  and  _202
REMARK   84  A    between atoms: _205  and  _207
REMARK   85  A    between atoms: _207  and  _208
REMARK   86  A    between atoms: _207  and  _210
REMARK   87  A    between atoms: _210  and  _211
REMARK   88  A    between atoms: _214  and  _216
REMARK   89  A    between atoms: _216  and  _217
REMARK   90  A    between atoms: _216  and  _219
REMARK   91  A    between atoms: _219  and  _220
REMARK   92  A    between atoms: _220  and  _221
REMARK   93  A    between atoms: _224  and  _226
REMARK   94  A    between atoms: _226  and  _227
REMARK   95  A    between atoms: _226  and  _229
REMARK   96  A    between atoms: _229  and  _230
REMARK   97  A    between atoms: _235  and  _236
REMARK   98  A    between atoms: _238  and  _240
REMARK   99  A    between atoms: _240  and  _241
REMARK  100  A    between atoms: _240  and  _243
REMARK  101  A    between atoms: _243  and  _244
REMARK  102  A    between atoms: _249  and  _251
REMARK  103  A    between atoms: _251  and  _252
REMARK  104  A    between atoms: _254  and  _256
REMARK  105  A    between atoms: _256  and  _257
REMARK  106  A    between atoms: _256  and  _259
REMARK  107  A    between atoms: _259  and  _260
REMARK  108  A    between atoms: _263  and  _265
REMARK  109  A    between atoms: _265  and  _266
REMARK  110  A    between atoms: _265  and  _268
REMARK  111  A    between atoms: _268  and  _269
REMARK  112  A    between atoms: _272  and  _274
REMARK  113  A    between atoms: _274  and  _275
REMARK  114  A    between atoms: _274  and  _277
REMARK  115  A    between atoms: _277  and  _278
REMARK  116  A    between atoms: _281  and  _283
REMARK  117  A    between atoms: _283  and  _284
REMARK  118  A    between atoms: _283  and  _286
REMARK  119  A    between atoms: _286  and  _287
REMARK  120  A    between atoms: _287  and  _288
REMARK  121  A    between atoms: _288  and  _289
REMARK  122  A    between atoms: _298  and  _300
REMARK  123  A    between atoms: _300  and  _301
REMARK                            x       y       z     vdW  Elec       q    Type
REMARK                         _______ _______ _______ _____ _____    ______ ____
ROOT
ATOM      1  O   HOH     1     -16.254  17.983  -0.046  0.00  0.00    +0.000 OA
ENDROOT
TORSDOF 0
REMARK  Name = ../refined-set-2016/4tte/4tte_pocket.pdb
REMARK  123 active torsions:
REMARK  status: ('A' for Active; 'I' for Inactive)
REMARK    1  A    between atoms: _1  and  _3
REMARK    2  A    between atoms: _3  and  _4
REMARK    3  A    between atoms: _3  and  _6
REMARK    4  A    between atoms: _6  and  _7
REMARK    5  A    between atoms: _13  and  _15
REMARK    6  A    between atoms: _15  and  _16
REMARK    7  A    between atoms: _15  and  _18
REMARK    8  A    between atoms: _18  and  _19
REMARK    9  A    between atoms: _19  and  _20
REMARK   10  A    between atoms: _20  and  _21
REMARK   11  A    between atoms: _30  and  _32
REMARK   12  A    between atoms: _32  and  _33
REMARK   13  A    between atoms: _32  and  _35
REMARK   14  A    between atoms: _38  and  _40
REMARK   15  A    between atoms: _40  and  _41
REMARK   16  A    between atoms: _40  and  _43
REMARK   17  A    between atoms: _43  and  _44
REMARK   18  A    between atoms: _50  and  _52
REMARK   19  A    between atoms: _52  and  _53
REMARK   20  A    between atoms: _52  and  _55
REMARK   21  A    between atoms: _55  and  _56
REMARK   22  A    between atoms: _59  and  _61
REMARK   23  A    between atoms: _61  and  _62
REMARK   24  A    between atoms: _61  and  _64
REMARK   25  A    between atoms: _64  and  _65
REMARK   26  A    between atoms: _65  and  _66
REMARK   27  A    between atoms: _66  and  _67
REMARK   28  A    between atoms: _67  and  _68
REMARK   29  A    between atoms: _73  and  _74
REMARK   30  A    between atoms: _79  and  _81
REMARK   31  A    between atoms: _81  and  _82
REMARK   32  A    between atoms: _81  and  _84
REMARK   33  A    between atoms: _87  and  _89
REMARK   34  A    between atoms: _89  and  _90
REMARK   35  A    between atoms: _89  and  _92
REMARK   36  A    between atoms: _92  and  _93
REMARK   37  A    between atoms: _96  and  _98
REMARK   38  A    between atoms: _98  and  _99
REMARK   39  A    between atoms: _98  and  _101
REMARK   40  A    between atoms: _101  and  _102
REMARK   41  A    between atoms: _102  and  _103
REMARK   42  A    between atoms: _106  and  _108
REMARK   43  A    between atoms: _108  and  _109
REMARK   44  A    between atoms: _108  and  _111
REMARK   45  A    between atoms: _114  and  _116
REMARK   46  A    between atoms: _116  and  _117
REMARK   47  A    between atoms: _116  and  _119
REMARK   48  A    between atoms: _119  and  _120
REMARK   49  A    between atoms: _123  and  _125
REMARK   50  A    between atoms: _125  and  _126
REMARK   51  A    between atoms: _125  and  _128
REMARK   52  A    between atoms: _128  and  _129
REMARK   53  A    between atoms: _134  and  _135
REMARK   54  A    between atoms: _137  and  _139
REMARK   55  A    between atoms: _139  and  _140
REMARK   56  A    between atoms: _139  and  _142
REMARK   57  A    between atoms: _142  and  _143
REMARK   58  A    between atoms: _146  and  _148
REMARK   59  A    between atoms: _148  and  _149
REMARK   60  A    between atoms: _148  and  _151
REMARK   61  A    between atoms: _151  and  _152
REMARK   62  A    between atoms: _152  and  _153
REMARK   63  A    between atoms: _155  and  _157
REMARK   64  A    between atoms: _157  and  _158
REMARK   65  A    between atoms: _157  and  _160
REMARK   66  A    between atoms: _160  and  _161
REMARK   67  A    between atoms: _164  and  _166
REMARK   68  A    between atoms: _166  and  _167
REMARK   69  A    between atoms: _166  and  _169
REMARK   70  A    between atoms: _169  and  _170
REMARK   71  A    between atoms: _172  and  _174
REMARK   72  A    between atoms: _174  and  _175
REMARK   73  A    between atoms: _174  and  _177
REMARK   74  A    between atoms: _177  and  _178
REMARK   75  A    between atoms: _181  and  _183
REMARK   76  A    between atoms: _183  and  _184
REMARK   77  A    between atoms: _183  and  _186
REMARK   78  A    between atoms: _188  and  _190
REMARK   79  A    between atoms: _190  and  _191
REMARK   80  A    between atoms: _190  and  _193
REMARK   81  A    between atoms: _193  and  _194
REMARK   82  A    between atoms: _199  and  _201
REMARK   83  A    between atoms: _201  and  _202
REMARK   84  A    between atoms: _205  and  _207
REMARK   85  A    between atoms: _207  and  _208
REMARK   86  A    between atoms: _207  and  _210
REMARK   87  A    between atoms: _210  and  _211
REMARK   88  A    between atoms: _214  and  _216
REMARK   89  A    between atoms: _216  and  _217
REMARK   90  A    between atoms: _216  and  _219
REMARK   91  A    between atoms: _219  and  _220
REMARK   92  A    between atoms: _220  and  _221
REMARK   93  A    between atoms: _224  and  _226
REMARK   94  A    between atoms: _226  and  _227
REMARK   95  A    between atoms: _226  and  _229
REMARK   96  A    between atoms: _229  and  _230
REMARK   97  A    between atoms: _235  and  _236
REMARK   98  A    between atoms: _238  and  _240
REMARK   99  A    between atoms: _240  and  _241
REMARK  100  A    between atoms: _240  and  _243
REMARK  101  A    between atoms: _243  and  _244
REMARK  102  A    between atoms: _249  and  _251
REMARK  103  A    between atoms: _251  and  _252
REMARK  104  A    between atoms: _254  and  _256
REMARK  105  A    between atoms: _256  and  _257
REMARK  106  A    between atoms: _256  and  _259
REMARK  107  A    between atoms: _259  and  _260
REMARK  108  A    between atoms: _263  and  _265
REMARK  109  A    between atoms: _265  and  _266
REMARK  110  A    between atoms: _265  and  _268
REMARK  111  A    between atoms: _268  and  _269
REMARK  112  A    between atoms: _272  and  _274
REMARK  113  A    between atoms: _274  and  _275
REMARK  114  A    between atoms: _274  and  _277
REMARK  115  A    between atoms: _277  and  _278
REMARK  116  A    between atoms: _281  and  _283
REMARK  117  A    between atoms: _283  and  _284
REMARK  118  A    between atoms: _283  and  _286
REMARK  119  A    between atoms: _286  and  _287
REMARK  120  A    between atoms: _287  and  _288
REMARK  121  A    between atoms: _288  and  _289
REMARK  122  A    between atoms: _298  and  _300
REMARK  123  A    between atoms: _300  and  _301
REMARK                            x       y       z     vdW  Elec       q    Type
REMARK                         _______ _______ _______ _____ _____    ______ ____
ROOT
ATOM      1  O   HOH     1     -13.013  18.170   9.833  0.00  0.00    +0.000 OA
ENDROOT
TORSDOF 0
REMARK  Name = ../refined-set-2016/4tte/4tte_pocket.pdb
REMARK  123 active torsions:
REMARK  status: ('A' for Active; 'I' for Inactive)
REMARK    1  A    between atoms: _1  and  _3
REMARK    2  A    between atoms: _3  and  _4
REMARK    3  A    between atoms: _3  and  _6
REMARK    4  A    between atoms: _6  and  _7
REMARK    5  A    between atoms: _13  and  _15
REMARK    6  A    between atoms: _15  and  _16
REMARK    7  A    between atoms: _15  and  _18
REMARK    8  A    between atoms: _18  and  _19
REMARK    9  A    between atoms: _19  and  _20
REMARK   10  A    between atoms: _20  and  _21
REMARK   11  A    between atoms: _30  and  _32
REMARK   12  A    between atoms: _32  and  _33
REMARK   13  A    between atoms: _32  and  _35
REMARK   14  A    between atoms: _38  and  _40
REMARK   15  A    between atoms: _40  and  _41
REMARK   16  A    between atoms: _40  and  _43
REMARK   17  A    between atoms: _43  and  _44
REMARK   18  A    between atoms: _50  and  _52
REMARK   19  A    between atoms: _52  and  _53
REMARK   20  A    between atoms: _52  and  _55
REMARK   21  A    between atoms: _55  and  _56
REMARK   22  A    between atoms: _59  and  _61
REMARK   23  A    between atoms: _61  and  _62
REMARK   24  A    between atoms: _61  and  _64
REMARK   25  A    between atoms: _64  and  _65
REMARK   26  A    between atoms: _65  and  _66
REMARK   27  A    between atoms: _66  and  _67
REMARK   28  A    between atoms: _67  and  _68
REMARK   29  A    between atoms: _73  and  _74
REMARK   30  A    between atoms: _79  and  _81
REMARK   31  A    between atoms: _81  and  _82
REMARK   32  A    between atoms: _81  and  _84
REMARK   33  A    between atoms: _87  and  _89
REMARK   34  A    between atoms: _89  and  _90
REMARK   35  A    between atoms: _89  and  _92
REMARK   36  A    between atoms: _92  and  _93
REMARK   37  A    between atoms: _96  and  _98
REMARK   38  A    between atoms: _98  and  _99
REMARK   39  A    between atoms: _98  and  _101
REMARK   40  A    between atoms: _101  and  _102
REMARK   41  A    between atoms: _102  and  _103
REMARK   42  A    between atoms: _106  and  _108
REMARK   43  A    between atoms: _108  and  _109
REMARK   44  A    between atoms: _108  and  _111
REMARK   45  A    between atoms: _114  and  _116
REMARK   46  A    between atoms: _116  and  _117
REMARK   47  A    between atoms: _116  and  _119
REMARK   48  A    between atoms: _119  and  _120
REMARK   49  A    between atoms: _123  and  _125
REMARK   50  A    between atoms: _125  and  _126
REMARK   51  A    between atoms: _125  and  _128
REMARK   52  A    between atoms: _128  and  _129
REMARK   53  A    between atoms: _134  and  _135
REMARK   54  A    between atoms: _137  and  _139
REMARK   55  A    between atoms: _139  and  _140
REMARK   56  A    between atoms: _139  and  _142
REMARK   57  A    between atoms: _142  and  _143
REMARK   58  A    between atoms: _146  and  _148
REMARK   59  A    between atoms: _148  and  _149
REMARK   60  A    between atoms: _148  and  _151
REMARK   61  A    between atoms: _151  and  _152
REMARK   62  A    between atoms: _152  and  _153
REMARK   63  A    between atoms: _155  and  _157
REMARK   64  A    between atoms: _157  and  _158
REMARK   65  A    between atoms: _157  and  _160
REMARK   66  A    between atoms: _160  and  _161
REMARK   67  A    between atoms: _164  and  _166
REMARK   68  A    between atoms: _166  and  _167
REMARK   69  A    between atoms: _166  and  _169
REMARK   70  A    between atoms: _169  and  _170
REMARK   71  A    between atoms: _172  and  _174
REMARK   72  A    between atoms: _174  and  _175
REMARK   73  A    between atoms: _174  and  _177
REMARK   74  A    between atoms: _177  and  _178
REMARK   75  A    between atoms: _181  and  _183
REMARK   76  A    between atoms: _183  and  _184
REMARK   77  A    between atoms: _183  and  _186
REMARK   78  A    between atoms: _188  and  _190
REMARK   79  A    between atoms: _190  and  _191
REMARK   80  A    between atoms: _190  and  _193
REMARK   81  A    between atoms: _193  and  _194
REMARK   82  A    between atoms: _199  and  _201
REMARK   83  A    between atoms: _201  and  _202
REMARK   84  A    between atoms: _205  and  _207
REMARK   85  A    between atoms: _207  and  _208
REMARK   86  A    between atoms: _207  and  _210
REMARK   87  A    between atoms: _210  and  _211
REMARK   88  A    between atoms: _214  and  _216
REMARK   89  A    between atoms: _216  and  _217
REMARK   90  A    between atoms: _216  and  _219
REMARK   91  A    between atoms: _219  and  _220
REMARK   92  A    between atoms: _220  and  _221
REMARK   93  A    between atoms: _224  and  _226
REMARK   94  A    between atoms: _226  and  _227
REMARK   95  A    between atoms: _226  and  _229
REMARK   96  A    between atoms: _229  and  _230
REMARK   97  A    between atoms: _235  and  _236
REMARK   98  A    between atoms: _238  and  _240
REMARK   99  A    between atoms: _240  and  _241
REMARK  100  A    between atoms: _240  and  _243
REMARK  101  A    between atoms: _243  and  _244
REMARK  102  A    between atoms: _249  and  _251
REMARK  103  A    between atoms: _251  and  _252
REMARK  104  A    between atoms: _254  and  _256
REMARK  105  A    between atoms: _256  and  _257
REMARK  106  A    between atoms: _256  and  _259
REMARK  107  A    between atoms: _259  and  _260
REMARK  108  A    between atoms: _263  and  _265
REMARK  109  A    between atoms: _265  and  _266
REMARK  110  A    between atoms: _265  and  _268
REMARK  111  A    between atoms: _268  and  _269
REMARK  112  A    between atoms: _272  and  _274
REMARK  113  A    between atoms: _274  and  _275
REMARK  114  A    between atoms: _274  and  _277
REMARK  115  A    between atoms: _277  and  _278
REMARK  116  A    between atoms: _281  and  _283
REMARK  117  A    between atoms: _283  and  _284
REMARK  118  A    between atoms: _283  and  _286
REMARK  119  A    between atoms: _286  and  _287
REMARK  120  A    between atoms: _287  and  _288
REMARK  121  A    between atoms: _288  and  _289
REMARK  122  A    between atoms: _298  and  _300
REMARK  123  A    between atoms: _300  and  _301
REMARK                            x       y       z     vdW  Elec       q    Type
REMARK                         _______ _______ _______ _____ _____    ______ ____
ROOT
ATOM      1  O   HOH     1     -10.432  19.844  18.563  0.00  0.00    +0.000 OA
ENDROOT
TORSDOF 0
