REMARK  Name = ../refined-set-2016/4abe/4abe_pocket.pdb
REMARK  133 active torsions:
REMARK  status: ('A' for Active; 'I' for Inactive)
REMARK    1  A    between atoms: _1  and  _5
REMARK    2  A    between atoms: _5  and  _6
REMARK    3  A    between atoms: _5  and  _8
REMARK    4  A    between atoms: _8  and  _9
REMARK    5  A    between atoms: _12  and  _14
REMARK    6  A    between atoms: _14  and  _15
REMARK    7  A    between atoms: _14  and  _17
REMARK    8  A    between atoms: _20  and  _22
REMARK    9  A    between atoms: _22  and  _23
REMARK   10  A    between atoms: _22  and  _25
REMARK   11  A    between atoms: _25  and  _26
REMARK   12  A    between atoms: _31  and  _33
REMARK   13  A    between atoms: _33  and  _34
REMARK   14  A    between atoms: _33  and  _36
REMARK   15  A    between atoms: _36  and  _37
REMARK   16  A    between atoms: _40  and  _42
REMARK   17  A    between atoms: _42  and  _43
REMARK   18  A    between atoms: _42  and  _45
REMARK   19  A    between atoms: _45  and  _46
REMARK   20  A    between atoms: _49  and  _51
REMARK   21  A    between atoms: _51  and  _52
REMARK   22  A    between atoms: _51  and  _54
REMARK   23  A    between atoms: _54  and  _55
REMARK   24  A    between atoms: _60  and  _62
REMARK   25  A    between atoms: _62  and  _63
REMARK   26  A    between atoms: _62  and  _65
REMARK   27  A    between atoms: _65  and  _66
REMARK   28  A    between atoms: _66  and  _67
REMARK   29  A    between atoms: _67  and  _68
REMARK   30  A    between atoms: _68  and  _69
REMARK   31  A    between atoms: _73  and  _75
REMARK   32  A    between atoms: _75  and  _76
REMARK   33  A    between atoms: _75  and  _78
REMARK   34  A    between atoms: _78  and  _79
REMARK   35  A    between atoms: _84  and  _85
REMARK   36  A    between atoms: _87  and  _89
REMARK   37  A    between atoms: _89  and  _90
REMARK   38  A    between atoms: _89  and  _92
REMARK   39  A    between atoms: _92  and  _93
REMARK   40  A    between atoms: _98  and  _99
REMARK   41  A    between atoms: _101  and  _103
REMARK   42  A    between atoms: _103  and  _104
REMARK   43  A    between atoms: _107  and  _109
REMARK   44  A    between atoms: _109  and  _110
REMARK   45  A    between atoms: _109  and  _112
REMARK   46  A    between atoms: _112  and  _113
REMARK   47  A    between atoms: _113  and  _114
REMARK   48  A    between atoms: _114  and  _115
REMARK   49  A    between atoms: _115  and  _116
REMARK   50  A    between atoms: _120  and  _122
REMARK   51  A    between atoms: _122  and  _123
REMARK   52  A    between atoms: _122  and  _125
REMARK   53  A    between atoms: _125  and  _126
REMARK   54  A    between atoms: _129  and  _131
REMARK   55  A    between atoms: _131  and  _132
REMARK   56  A    between atoms: _131  and  _134
REMARK   57  A    between atoms: _134  and  _135
REMARK   58  A    between atoms: _137  and  _139
REMARK   59  A    between atoms: _139  and  _140
REMARK   60  A    between atoms: _139  and  _142
REMARK   61  A    between atoms: _142  and  _143
REMARK   62  A    between atoms: _143  and  _253
REMARK   63  A    between atoms: _144  and  _146
REMARK   64  A    between atoms: _146  and  _147
REMARK   65  A    between atoms: _146  and  _149
REMARK   66  A    between atoms: _149  and  _150
REMARK   67  A    between atoms: _150  and  _151
REMARK   68  A    between atoms: _156  and  _158
REMARK   69  A    between atoms: _158  and  _159
REMARK   70  A    between atoms: _161  and  _163
REMARK   71  A    between atoms: _163  and  _164
REMARK   72  A    between atoms: _163  and  _166
REMARK   73  A    between atoms: _166  and  _167
REMARK   74  A    between atoms: _170  and  _172
REMARK   75  A    between atoms: _172  and  _173
REMARK   76  A    between atoms: _172  and  _175
REMARK   77  A    between atoms: _175  and  _176
REMARK   78  A    between atoms: _178  and  _180
REMARK   79  A    between atoms: _180  and  _181
REMARK   80  A    between atoms: _183  and  _185
REMARK   81  A    between atoms: _185  and  _186
REMARK   82  A    between atoms: _188  and  _190
REMARK   83  A    between atoms: _190  and  _191
REMARK   84  A    between atoms: _190  and  _193
REMARK   85  A    between atoms: _193  and  _194
REMARK   86  A    between atoms: _197  and  _199
REMARK   87  A    between atoms: _199  and  _200
REMARK   88  A    between atoms: _199  and  _202
REMARK   89  A    between atoms: _205  and  _207
REMARK   90  A    between atoms: _207  and  _208
REMARK   91  A    between atoms: _207  and  _210
REMARK   92  A    between atoms: _210  and  _211
REMARK   93  A    between atoms: _213  and  _215
REMARK   94  A    between atoms: _215  and  _216
REMARK   95  A    between atoms: _215  and  _218
REMARK   96  A    between atoms: _218  and  _219
REMARK   97  A    between atoms: _229  and  _231
REMARK   98  A    between atoms: _231  and  _232
REMARK   99  A    between atoms: _234  and  _236
REMARK  100  A    between atoms: _236  and  _237
REMARK  101  A    between atoms: _236  and  _239
REMARK  102  A    between atoms: _239  and  _240
REMARK  103  A    between atoms: _242  and  _244
REMARK  104  A    between atoms: _244  and  _245
REMARK  105  A    between atoms: _247  and  _249
REMARK  106  A    between atoms: _249  and  _250
REMARK  107  A    between atoms: _249  and  _252
REMARK  108  A    between atoms: _252  and  _253
REMARK  109  A    between atoms: _254  and  _256
REMARK  110  A    between atoms: _256  and  _257
REMARK  111  A    between atoms: _260  and  _262
REMARK  112  A    between atoms: _262  and  _263
REMARK  113  A    between atoms: _262  and  _265
REMARK  114  A    between atoms: _265  and  _266
REMARK  115  A    between atoms: _266  and  _267
REMARK  116  A    between atoms: _272  and  _274
REMARK  117  A    between atoms: _274  and  _275
REMARK  118  A    between atoms: _274  and  _277
REMARK  119  A    between atoms: _277  and  _278
REMARK  120  A    between atoms: _278  and  _279
REMARK  121  A    between atoms: _279  and  _280
REMARK  122  A    between atoms: _280  and  _281
REMARK  123  A    between atoms: _286  and  _287
REMARK  124  A    between atoms: _292  and  _294
REMARK  125  A    between atoms: _294  and  _295
REMARK  126  A    between atoms: _297  and  _299
REMARK  127  A    between atoms: _299  and  _300
REMARK  128  A    between atoms: _299  and  _302
REMARK  129  A    between atoms: _305  and  _307
REMARK  130  A    between atoms: _307  and  _308
REMARK  131  A    between atoms: _307  and  _310
REMARK  132  A    between atoms: _310  and  _311
REMARK  133  A    between atoms: _316  and  _317
REMARK                            x       y       z     vdW  Elec       q    Type
REMARK                         _______ _______ _______ _____ _____    ______ ____
ROOT
ATOM      1  C   ILE A   1      -9.320  20.375  15.361  0.00  0.00    +0.202 C 
ATOM      2  N   VAL A   2      -9.172  20.029  16.621  0.00  0.00    -0.301 N 
ATOM      3  H   VAL A   2      -8.211  19.880  16.988  0.00  0.00    +0.150 HD
ATOM      4  O   ILE A   1     -10.434  20.496  14.779  0.00  0.00    -0.277 OA
ENDROOT
BRANCH   1   5
ATOM      5  CA  ILE A   1      -8.042  20.639  14.601  0.00  0.00    +0.013 C 
BRANCH   5   6
ATOM      6  N   ILE A   1      -8.043  19.706  13.371  0.00  0.00    +0.387 N 
ATOM      7  H1  ILE A   1      -8.083  18.716  13.688  0.00  0.00    -0.089 HD
ATOM      8  H2  ILE A   1      -7.174  19.860  12.820  0.00  0.00    -0.089 HD
ATOM      9  H3  ILE A   1      -8.872  19.916  12.779  0.00  0.00    -0.089 HD
ENDBRANCH   5   6
BRANCH   5  10
ATOM     10  CB  ILE A   1      -8.014  22.092  14.120  0.00  0.00    -0.011 C 
ATOM     11  CG2 ILE A   1      -8.048  23.048  15.347  0.00  0.00    -0.002 C 
BRANCH  10  12
ATOM     12  CG1 ILE A   1      -6.799  22.429  13.194  0.00  0.00    -0.002 C 
ATOM     13  CD1 ILE A   1      -5.445  22.492  13.982  0.00  0.00    -0.000 C 
ENDBRANCH  10  12
ENDBRANCH   5  10
ENDBRANCH   1   5
BRANCH   2  14
ATOM     14  CA  VAL A   2     -10.324  19.843  17.540  0.00  0.00    +0.137 C 
BRANCH  14  15
ATOM     15  CB  VAL A   2     -10.100  18.602  18.429  0.00  0.00    +0.026 C 
ATOM     16  CG2 VAL A   2     -11.250  18.450  19.431  0.00  0.00    +0.002 C 
ATOM     17  CG1 VAL A   2      -9.892  17.319  17.636  0.00  0.00    +0.002 C 
ENDBRANCH  14  15
BRANCH  14  18
ATOM     18  C   VAL A   2     -10.482  21.090  18.363  0.00  0.00    +0.227 C 
ATOM     19  O   VAL A   2      -9.523  21.565  18.988  0.00  0.00    -0.286 OA
ENDBRANCH  14  18
ENDBRANCH   2  14
TORSDOF 7
REMARK  Name = ../refined-set-2016/4abe/4abe_pocket.pdb
REMARK  133 active torsions:
REMARK  status: ('A' for Active; 'I' for Inactive)
REMARK    1  A    between atoms: _1  and  _5
REMARK    2  A    between atoms: _5  and  _6
REMARK    3  A    between atoms: _5  and  _8
REMARK    4  A    between atoms: _8  and  _9
REMARK    5  A    between atoms: _12  and  _14
REMARK    6  A    between atoms: _14  and  _15
REMARK    7  A    between atoms: _14  and  _17
REMARK    8  A    between atoms: _20  and  _22
REMARK    9  A    between atoms: _22  and  _23
REMARK   10  A    between atoms: _22  and  _25
REMARK   11  A    between atoms: _25  and  _26
REMARK   12  A    between atoms: _31  and  _33
REMARK   13  A    between atoms: _33  and  _34
REMARK   14  A    between atoms: _33  and  _36
REMARK   15  A    between atoms: _36  and  _37
REMARK   16  A    between atoms: _40  and  _42
REMARK   17  A    between atoms: _42  and  _43
REMARK   18  A    between atoms: _42  and  _45
REMARK   19  A    between atoms: _45  and  _46
REMARK   20  A    between atoms: _49  and  _51
REMARK   21  A    between atoms: _51  and  _52
REMARK   22  A    between atoms: _51  and  _54
REMARK   23  A    between atoms: _54  and  _55
REMARK   24  A    between atoms: _60  and  _62
REMARK   25  A    between atoms: _62  and  _63
REMARK   26  A    between atoms: _62  and  _65
REMARK   27  A    between atoms: _65  and  _66
REMARK   28  A    between atoms: _66  and  _67
REMARK   29  A    between atoms: _67  and  _68
REMARK   30  A    between atoms: _68  and  _69
REMARK   31  A    between atoms: _73  and  _75
REMARK   32  A    between atoms: _75  and  _76
REMARK   33  A    between atoms: _75  and  _78
REMARK   34  A    between atoms: _78  and  _79
REMARK   35  A    between atoms: _84  and  _85
REMARK   36  A    between atoms: _87  and  _89
REMARK   37  A    between atoms: _89  and  _90
REMARK   38  A    between atoms: _89  and  _92
REMARK   39  A    between atoms: _92  and  _93
REMARK   40  A    between atoms: _98  and  _99
REMARK   41  A    between atoms: _101  and  _103
REMARK   42  A    between atoms: _103  and  _104
REMARK   43  A    between atoms: _107  and  _109
REMARK   44  A    between atoms: _109  and  _110
REMARK   45  A    between atoms: _109  and  _112
REMARK   46  A    between atoms: _112  and  _113
REMARK   47  A    between atoms: _113  and  _114
REMARK   48  A    between atoms: _114  and  _115
REMARK   49  A    between atoms: _115  and  _116
REMARK   50  A    between atoms: _120  and  _122
REMARK   51  A    between atoms: _122  and  _123
REMARK   52  A    between atoms: _122  and  _125
REMARK   53  A    between atoms: _125  and  _126
REMARK   54  A    between atoms: _129  and  _131
REMARK   55  A    between atoms: _131  and  _132
REMARK   56  A    between atoms: _131  and  _134
REMARK   57  A    between atoms: _134  and  _135
REMARK   58  A    between atoms: _137  and  _139
REMARK   59  A    between atoms: _139  and  _140
REMARK   60  A    between atoms: _139  and  _142
REMARK   61  A    between atoms: _142  and  _143
REMARK   62  A    between atoms: _143  and  _253
REMARK   63  A    between atoms: _144  and  _146
REMARK   64  A    between atoms: _146  and  _147
REMARK   65  A    between atoms: _146  and  _149
REMARK   66  A    between atoms: _149  and  _150
REMARK   67  A    between atoms: _150  and  _151
REMARK   68  A    between atoms: _156  and  _158
REMARK   69  A    between atoms: _158  and  _159
REMARK   70  A    between atoms: _161  and  _163
REMARK   71  A    between atoms: _163  and  _164
REMARK   72  A    between atoms: _163  and  _166
REMARK   73  A    between atoms: _166  and  _167
REMARK   74  A    between atoms: _170  and  _172
REMARK   75  A    between atoms: _172  and  _173
REMARK   76  A    between atoms: _172  and  _175
REMARK   77  A    between atoms: _175  and  _176
REMARK   78  A    between atoms: _178  and  _180
REMARK   79  A    between atoms: _180  and  _181
REMARK   80  A    between atoms: _183  and  _185
REMARK   81  A    between atoms: _185  and  _186
REMARK   82  A    between atoms: _188  and  _190
REMARK   83  A    between atoms: _190  and  _191
REMARK   84  A    between atoms: _190  and  _193
REMARK   85  A    between atoms: _193  and  _194
REMARK   86  A    between atoms: _197  and  _199
REMARK   87  A    between atoms: _199  and  _200
REMARK   88  A    between atoms: _199  and  _202
REMARK   89  A    between atoms: _205  and  _207
REMARK   90  A    between atoms: _207  and  _208
REMARK   91  A    between atoms: _207  and  _210
REMARK   92  A    between atoms: _210  and  _211
REMARK   93  A    between atoms: _213  and  _215
REMARK   94  A    between atoms: _215  and  _216
REMARK   95  A    between atoms: _215  and  _218
REMARK   96  A    between atoms: _218  and  _219
REMARK   97  A    between atoms: _229  and  _231
REMARK   98  A    between atoms: _231  and  _232
REMARK   99  A    between atoms: _234  and  _236
REMARK  100  A    between atoms: _236  and  _237
REMARK  101  A    between atoms: _236  and  _239
REMARK  102  A    between atoms: _239  and  _240
REMARK  103  A    between atoms: _242  and  _244
REMARK  104  A    between atoms: _244  and  _245
REMARK  105  A    between atoms: _247  and  _249
REMARK  106  A    between atoms: _249  and  _250
REMARK  107  A    between atoms: _249  and  _252
REMARK  108  A    between atoms: _252  and  _253
REMARK  109  A    between atoms: _254  and  _256
REMARK  110  A    between atoms: _256  and  _257
REMARK  111  A    between atoms: _260  and  _262
REMARK  112  A    between atoms: _262  and  _263
REMARK  113  A    between atoms: _262  and  _265
REMARK  114  A    between atoms: _265  and  _266
REMARK  115  A    between atoms: _266  and  _267
REMARK  116  A    between atoms: _272  and  _274
REMARK  117  A    between atoms: _274  and  _275
REMARK  118  A    between atoms: _274  and  _277
REMARK  119  A    between atoms: _277  and  _278
REMARK  120  A    between atoms: _278  and  _279
REMARK  121  A    between atoms: _279  and  _280
REMARK  122  A    between atoms: _280  and  _281
REMARK  123  A    between atoms: _286  and  _287
REMARK  124  A    between atoms: _292  and  _294
REMARK  125  A    between atoms: _294  and  _295
REMARK  126  A    between atoms: _297  and  _299
REMARK  127  A    between atoms: _299  and  _300
REMARK  128  A    between atoms: _299  and  _302
REMARK  129  A    between atoms: _305  and  _307
REMARK  130  A    between atoms: _307  and  _308
REMARK  131  A    between atoms: _307  and  _310
REMARK  132  A    between atoms: _310  and  _311
REMARK  133  A    between atoms: _316  and  _317
REMARK                            x       y       z     vdW  Elec       q    Type
REMARK                         _______ _______ _______ _____ _____    ______ ____
ROOT
ATOM      1  CB  HIS A   1       5.777  10.972  10.017  0.00  0.00    +0.072 C 
ENDROOT
BRANCH   1   2
ATOM      2  CG  HIS A   1       4.613  11.800  10.441  0.00  0.00    +0.082 A 
ATOM      3  ND1 HIS A   1       4.679  12.875  11.302  0.00  0.00    -0.227 NA
ATOM      4  CE1 HIS A   1       3.445  13.398  11.490  0.00  0.00    +0.199 A 
ATOM      5  NE2 HIS A   1       2.575  12.630  10.789  0.00  0.00    -0.221 NA
ATOM      6  CD2 HIS A   1       3.306  11.656  10.102  0.00  0.00    +0.115 A 
ENDBRANCH   1   2
BRANCH   1   7
ATOM      7  CA  HIS A   1       6.344  11.323   8.656  0.00  0.00    +0.139 C 
BRANCH   7   8
ATOM      8  N   HIS A   1       7.279  12.457   8.684  0.00  0.00    -0.239 NA
ATOM      9  H   HIS A   1       7.272  13.132   9.475  0.00  0.00    +0.142 HD
ENDBRANCH   7   8
BRANCH   7  10
ATOM     10  C   HIS A   1       5.289  11.498   7.593  0.00  0.00    +0.224 C 
ATOM     11  O   HIS A   1       4.565  10.545   7.299  0.00  0.00    -0.287 OA
ENDBRANCH   7  10
ENDBRANCH   1   7
TORSDOF 4
REMARK  Name = ../refined-set-2016/4abe/4abe_pocket.pdb
REMARK  133 active torsions:
REMARK  status: ('A' for Active; 'I' for Inactive)
REMARK    1  A    between atoms: _1  and  _5
REMARK    2  A    between atoms: _5  and  _6
REMARK    3  A    between atoms: _5  and  _8
REMARK    4  A    between atoms: _8  and  _9
REMARK    5  A    between atoms: _12  and  _14
REMARK    6  A    between atoms: _14  and  _15
REMARK    7  A    between atoms: _14  and  _17
REMARK    8  A    between atoms: _20  and  _22
REMARK    9  A    between atoms: _22  and  _23
REMARK   10  A    between atoms: _22  and  _25
REMARK   11  A    between atoms: _25  and  _26
REMARK   12  A    between atoms: _31  and  _33
REMARK   13  A    between atoms: _33  and  _34
REMARK   14  A    between atoms: _33  and  _36
REMARK   15  A    between atoms: _36  and  _37
REMARK   16  A    between atoms: _40  and  _42
REMARK   17  A    between atoms: _42  and  _43
REMARK   18  A    between atoms: _42  and  _45
REMARK   19  A    between atoms: _45  and  _46
REMARK   20  A    between atoms: _49  and  _51
REMARK   21  A    between atoms: _51  and  _52
REMARK   22  A    between atoms: _51  and  _54
REMARK   23  A    between atoms: _54  and  _55
REMARK   24  A    between atoms: _60  and  _62
REMARK   25  A    between atoms: _62  and  _63
REMARK   26  A    between atoms: _62  and  _65
REMARK   27  A    between atoms: _65  and  _66
REMARK   28  A    between atoms: _66  and  _67
REMARK   29  A    between atoms: _67  and  _68
REMARK   30  A    between atoms: _68  and  _69
REMARK   31  A    between atoms: _73  and  _75
REMARK   32  A    between atoms: _75  and  _76
REMARK   33  A    between atoms: _75  and  _78
REMARK   34  A    between atoms: _78  and  _79
REMARK   35  A    between atoms: _84  and  _85
REMARK   36  A    between atoms: _87  and  _89
REMARK   37  A    between atoms: _89  and  _90
REMARK   38  A    between atoms: _89  and  _92
REMARK   39  A    between atoms: _92  and  _93
REMARK   40  A    between atoms: _98  and  _99
REMARK   41  A    between atoms: _101  and  _103
REMARK   42  A    between atoms: _103  and  _104
REMARK   43  A    between atoms: _107  and  _109
REMARK   44  A    between atoms: _109  and  _110
REMARK   45  A    between atoms: _109  and  _112
REMARK   46  A    between atoms: _112  and  _113
REMARK   47  A    between atoms: _113  and  _114
REMARK   48  A    between atoms: _114  and  _115
REMARK   49  A    between atoms: _115  and  _116
REMARK   50  A    between atoms: _120  and  _122
REMARK   51  A    between atoms: _122  and  _123
REMARK   52  A    between atoms: _122  and  _125
REMARK   53  A    between atoms: _125  and  _126
REMARK   54  A    between atoms: _129  and  _131
REMARK   55  A    between atoms: _131  and  _132
REMARK   56  A    between atoms: _131  and  _134
REMARK   57  A    between atoms: _134  and  _135
REMARK   58  A    between atoms: _137  and  _139
REMARK   59  A    between atoms: _139  and  _140
REMARK   60  A    between atoms: _139  and  _142
REMARK   61  A    between atoms: _142  and  _143
REMARK   62  A    between atoms: _143  and  _253
REMARK   63  A    between atoms: _144  and  _146
REMARK   64  A    between atoms: _146  and  _147
REMARK   65  A    between atoms: _146  and  _149
REMARK   66  A    between atoms: _149  and  _150
REMARK   67  A    between atoms: _150  and  _151
REMARK   68  A    between atoms: _156  and  _158
REMARK   69  A    between atoms: _158  and  _159
REMARK   70  A    between atoms: _161  and  _163
REMARK   71  A    between atoms: _163  and  _164
REMARK   72  A    between atoms: _163  and  _166
REMARK   73  A    between atoms: _166  and  _167
REMARK   74  A    between atoms: _170  and  _172
REMARK   75  A    between atoms: _172  and  _173
REMARK   76  A    between atoms: _172  and  _175
REMARK   77  A    between atoms: _175  and  _176
REMARK   78  A    between atoms: _178  and  _180
REMARK   79  A    between atoms: _180  and  _181
REMARK   80  A    between atoms: _183  and  _185
REMARK   81  A    between atoms: _185  and  _186
REMARK   82  A    between atoms: _188  and  _190
REMARK   83  A    between atoms: _190  and  _191
REMARK   84  A    between atoms: _190  and  _193
REMARK   85  A    between atoms: _193  and  _194
REMARK   86  A    between atoms: _197  and  _199
REMARK   87  A    between atoms: _199  and  _200
REMARK   88  A    between atoms: _199  and  _202
REMARK   89  A    between atoms: _205  and  _207
REMARK   90  A    between atoms: _207  and  _208
REMARK   91  A    between atoms: _207  and  _210
REMARK   92  A    between atoms: _210  and  _211
REMARK   93  A    between atoms: _213  and  _215
REMARK   94  A    between atoms: _215  and  _216
REMARK   95  A    between atoms: _215  and  _218
REMARK   96  A    between atoms: _218  and  _219
REMARK   97  A    between atoms: _229  and  _231
REMARK   98  A    between atoms: _231  and  _232
REMARK   99  A    between atoms: _234  and  _236
REMARK  100  A    between atoms: _236  and  _237
REMARK  101  A    between atoms: _236  and  _239
REMARK  102  A    between atoms: _239  and  _240
REMARK  103  A    between atoms: _242  and  _244
REMARK  104  A    between atoms: _244  and  _245
REMARK  105  A    between atoms: _247  and  _249
REMARK  106  A    between atoms: _249  and  _250
REMARK  107  A    between atoms: _249  and  _252
REMARK  108  A    between atoms: _252  and  _253
REMARK  109  A    between atoms: _254  and  _256
REMARK  110  A    between atoms: _256  and  _257
REMARK  111  A    between atoms: _260  and  _262
REMARK  112  A    between atoms: _262  and  _263
REMARK  113  A    between atoms: _262  and  _265
REMARK  114  A    between atoms: _265  and  _266
REMARK  115  A    between atoms: _266  and  _267
REMARK  116  A    between atoms: _272  and  _274
REMARK  117  A    between atoms: _274  and  _275
REMARK  118  A    between atoms: _274  and  _277
REMARK  119  A    between atoms: _277  and  _278
REMARK  120  A    between atoms: _278  and  _279
REMARK  121  A    between atoms: _279  and  _280
REMARK  122  A    between atoms: _280  and  _281
REMARK  123  A    between atoms: _286  and  _287
REMARK  124  A    between atoms: _292  and  _294
REMARK  125  A    between atoms: _294  and  _295
REMARK  126  A    between atoms: _297  and  _299
REMARK  127  A    between atoms: _299  and  _300
REMARK  128  A    between atoms: _299  and  _302
REMARK  129  A    between atoms: _305  and  _307
REMARK  130  A    between atoms: _307  and  _308
REMARK  131  A    between atoms: _307  and  _310
REMARK  132  A    between atoms: _310  and  _311
REMARK  133  A    between atoms: _316  and  _317
REMARK                            x       y       z     vdW  Elec       q    Type
REMARK                         _______ _______ _______ _____ _____    ______ ____
ROOT
ATOM      1  CA  LEU A   1       9.659  10.772  15.568  0.00  0.00    +0.133 C 
ENDROOT
BRANCH   1   2
ATOM      2  N   LEU A   1      10.018   9.480  16.190  0.00  0.00    -0.239 NA
ATOM      3  H   LEU A   1      10.243   8.683  15.561  0.00  0.00    +0.142 HD
ENDBRANCH   1   2
BRANCH   1   4
ATOM      4  C   LEU A   1      10.652  11.856  15.907  0.00  0.00    +0.224 C 
ATOM      5  O   LEU A   1      10.325  13.057  15.685  0.00  0.00    -0.287 OA
ENDBRANCH   1   4
BRANCH   1   6
ATOM      6  CB  LEU A   1       8.174  11.191  15.812  0.00  0.00    +0.025 C 
BRANCH   6   7
ATOM      7  CG  LEU A   1       7.152  10.129  15.260  0.00  0.00    +0.002 C 
ATOM      8  CD2 LEU A   1       5.730  10.650  15.504  0.00  0.00    +0.000 C 
ATOM      9  CD1 LEU A   1       7.407   9.889  13.746  0.00  0.00    +0.000 C 
ENDBRANCH   6   7
ENDBRANCH   1   6
TORSDOF 4
REMARK  Name = ../refined-set-2016/4abe/4abe_pocket.pdb
REMARK  133 active torsions:
REMARK  status: ('A' for Active; 'I' for Inactive)
REMARK    1  A    between atoms: _1  and  _5
REMARK    2  A    between atoms: _5  and  _6
REMARK    3  A    between atoms: _5  and  _8
REMARK    4  A    between atoms: _8  and  _9
REMARK    5  A    between atoms: _12  and  _14
REMARK    6  A    between atoms: _14  and  _15
REMARK    7  A    between atoms: _14  and  _17
REMARK    8  A    between atoms: _20  and  _22
REMARK    9  A    between atoms: _22  and  _23
REMARK   10  A    between atoms: _22  and  _25
REMARK   11  A    between atoms: _25  and  _26
REMARK   12  A    between atoms: _31  and  _33
REMARK   13  A    between atoms: _33  and  _34
REMARK   14  A    between atoms: _33  and  _36
REMARK   15  A    between atoms: _36  and  _37
REMARK   16  A    between atoms: _40  and  _42
REMARK   17  A    between atoms: _42  and  _43
REMARK   18  A    between atoms: _42  and  _45
REMARK   19  A    between atoms: _45  and  _46
REMARK   20  A    between atoms: _49  and  _51
REMARK   21  A    between atoms: _51  and  _52
REMARK   22  A    between atoms: _51  and  _54
REMARK   23  A    between atoms: _54  and  _55
REMARK   24  A    between atoms: _60  and  _62
REMARK   25  A    between atoms: _62  and  _63
REMARK   26  A    between atoms: _62  and  _65
REMARK   27  A    between atoms: _65  and  _66
REMARK   28  A    between atoms: _66  and  _67
REMARK   29  A    between atoms: _67  and  _68
REMARK   30  A    between atoms: _68  and  _69
REMARK   31  A    between atoms: _73  and  _75
REMARK   32  A    between atoms: _75  and  _76
REMARK   33  A    between atoms: _75  and  _78
REMARK   34  A    between atoms: _78  and  _79
REMARK   35  A    between atoms: _84  and  _85
REMARK   36  A    between atoms: _87  and  _89
REMARK   37  A    between atoms: _89  and  _90
REMARK   38  A    between atoms: _89  and  _92
REMARK   39  A    between atoms: _92  and  _93
REMARK   40  A    between atoms: _98  and  _99
REMARK   41  A    between atoms: _101  and  _103
REMARK   42  A    between atoms: _103  and  _104
REMARK   43  A    between atoms: _107  and  _109
REMARK   44  A    between atoms: _109  and  _110
REMARK   45  A    between atoms: _109  and  _112
REMARK   46  A    between atoms: _112  and  _113
REMARK   47  A    between atoms: _113  and  _114
REMARK   48  A    between atoms: _114  and  _115
REMARK   49  A    between atoms: _115  and  _116
REMARK   50  A    between atoms: _120  and  _122
REMARK   51  A    between atoms: _122  and  _123
REMARK   52  A    between atoms: _122  and  _125
REMARK   53  A    between atoms: _125  and  _126
REMARK   54  A    between atoms: _129  and  _131
REMARK   55  A    between atoms: _131  and  _132
REMARK   56  A    between atoms: _131  and  _134
REMARK   57  A    between atoms: _134  and  _135
REMARK   58  A    between atoms: _137  and  _139
REMARK   59  A    between atoms: _139  and  _140
REMARK   60  A    between atoms: _139  and  _142
REMARK   61  A    between atoms: _142  and  _143
REMARK   62  A    between atoms: _143  and  _253
REMARK   63  A    between atoms: _144  and  _146
REMARK   64  A    between atoms: _146  and  _147
REMARK   65  A    between atoms: _146  and  _149
REMARK   66  A    between atoms: _149  and  _150
REMARK   67  A    between atoms: _150  and  _151
REMARK   68  A    between atoms: _156  and  _158
REMARK   69  A    between atoms: _158  and  _159
REMARK   70  A    between atoms: _161  and  _163
REMARK   71  A    between atoms: _163  and  _164
REMARK   72  A    between atoms: _163  and  _166
REMARK   73  A    between atoms: _166  and  _167
REMARK   74  A    between atoms: _170  and  _172
REMARK   75  A    between atoms: _172  and  _173
REMARK   76  A    between atoms: _172  and  _175
REMARK   77  A    between atoms: _175  and  _176
REMARK   78  A    between atoms: _178  and  _180
REMARK   79  A    between atoms: _180  and  _181
REMARK   80  A    between atoms: _183  and  _185
REMARK   81  A    between atoms: _185  and  _186
REMARK   82  A    between atoms: _188  and  _190
REMARK   83  A    between atoms: _190  and  _191
REMARK   84  A    between atoms: _190  and  _193
REMARK   85  A    between atoms: _193  and  _194
REMARK   86  A    between atoms: _197  and  _199
REMARK   87  A    between atoms: _199  and  _200
REMARK   88  A    between atoms: _199  and  _202
REMARK   89  A    between atoms: _205  and  _207
REMARK   90  A    between atoms: _207  and  _208
REMARK   91  A    between atoms: _207  and  _210
REMARK   92  A    between atoms: _210  and  _211
REMARK   93  A    between atoms: _213  and  _215
REMARK   94  A    between atoms: _215  and  _216
REMARK   95  A    between atoms: _215  and  _218
REMARK   96  A    between atoms: _218  and  _219
REMARK   97  A    between atoms: _229  and  _231
REMARK   98  A    between atoms: _231  and  _232
REMARK   99  A    between atoms: _234  and  _236
REMARK  100  A    between atoms: _236  and  _237
REMARK  101  A    between atoms: _236  and  _239
REMARK  102  A    between atoms: _239  and  _240
REMARK  103  A    between atoms: _242  and  _244
REMARK  104  A    between atoms: _244  and  _245
REMARK  105  A    between atoms: _247  and  _249
REMARK  106  A    between atoms: _249  and  _250
REMARK  107  A    between atoms: _249  and  _252
REMARK  108  A    between atoms: _252  and  _253
REMARK  109  A    between atoms: _254  and  _256
REMARK  110  A    between atoms: _256  and  _257
REMARK  111  A    between atoms: _260  and  _262
REMARK  112  A    between atoms: _262  and  _263
REMARK  113  A    between atoms: _262  and  _265
REMARK  114  A    between atoms: _265  and  _266
REMARK  115  A    between atoms: _266  and  _267
REMARK  116  A    between atoms: _272  and  _274
REMARK  117  A    between atoms: _274  and  _275
REMARK  118  A    between atoms: _274  and  _277
REMARK  119  A    between atoms: _277  and  _278
REMARK  120  A    between atoms: _278  and  _279
REMARK  121  A    between atoms: _279  and  _280
REMARK  122  A    between atoms: _280  and  _281
REMARK  123  A    between atoms: _286  and  _287
REMARK  124  A    between atoms: _292  and  _294
REMARK  125  A    between atoms: _294  and  _295
REMARK  126  A    between atoms: _297  and  _299
REMARK  127  A    between atoms: _299  and  _300
REMARK  128  A    between atoms: _299  and  _302
REMARK  129  A    between atoms: _305  and  _307
REMARK  130  A    between atoms: _307  and  _308
REMARK  131  A    between atoms: _307  and  _310
REMARK  132  A    between atoms: _310  and  _311
REMARK  133  A    between atoms: _316  and  _317
REMARK                            x       y       z     vdW  Elec       q    Type
REMARK                         _______ _______ _______ _____ _____    ______ ____
ROOT
ATOM      1  CA  ASP A   1      10.237  14.999  12.243  0.00  0.00    +0.144 C 
ENDROOT
BRANCH   1   2
ATOM      2  N   ASP A   1      11.393  15.184  13.175  0.00  0.00    -0.239 NA
ATOM      3  H   ASP A   1      11.220  15.488  14.154  0.00  0.00    +0.142 HD
ENDBRANCH   1   2
BRANCH   1   4
ATOM      4  C   ASP A   1      10.063  16.244  11.398  0.00  0.00    +0.225 C 
ATOM      5  O   ASP A   1       9.141  17.076  11.574  0.00  0.00    -0.287 OA
ENDBRANCH   1   4
BRANCH   1   6
ATOM      6  CB  ASP A   1       8.963  14.672  13.061  0.00  0.00    +0.139 C 
BRANCH   6   7
ATOM      7  CG  ASP A   1       7.802  14.226  12.172  0.00  0.00    +0.367 C 
ATOM      8  OD2 ASP A   1       6.702  14.131  12.723  0.00  0.00    -0.246 OA
ATOM      9  OD1 ASP A   1       8.073  13.909  10.966  0.00  0.00    -0.246 OA
ENDBRANCH   6   7
ENDBRANCH   1   6
TORSDOF 4
REMARK  Name = ../refined-set-2016/4abe/4abe_pocket.pdb
REMARK  133 active torsions:
REMARK  status: ('A' for Active; 'I' for Inactive)
REMARK    1  A    between atoms: _1  and  _5
REMARK    2  A    between atoms: _5  and  _6
REMARK    3  A    between atoms: _5  and  _8
REMARK    4  A    between atoms: _8  and  _9
REMARK    5  A    between atoms: _12  and  _14
REMARK    6  A    between atoms: _14  and  _15
REMARK    7  A    between atoms: _14  and  _17
REMARK    8  A    between atoms: _20  and  _22
REMARK    9  A    between atoms: _22  and  _23
REMARK   10  A    between atoms: _22  and  _25
REMARK   11  A    between atoms: _25  and  _26
REMARK   12  A    between atoms: _31  and  _33
REMARK   13  A    between atoms: _33  and  _34
REMARK   14  A    between atoms: _33  and  _36
REMARK   15  A    between atoms: _36  and  _37
REMARK   16  A    between atoms: _40  and  _42
REMARK   17  A    between atoms: _42  and  _43
REMARK   18  A    between atoms: _42  and  _45
REMARK   19  A    between atoms: _45  and  _46
REMARK   20  A    between atoms: _49  and  _51
REMARK   21  A    between atoms: _51  and  _52
REMARK   22  A    between atoms: _51  and  _54
REMARK   23  A    between atoms: _54  and  _55
REMARK   24  A    between atoms: _60  and  _62
REMARK   25  A    between atoms: _62  and  _63
REMARK   26  A    between atoms: _62  and  _65
REMARK   27  A    between atoms: _65  and  _66
REMARK   28  A    between atoms: _66  and  _67
REMARK   29  A    between atoms: _67  and  _68
REMARK   30  A    between atoms: _68  and  _69
REMARK   31  A    between atoms: _73  and  _75
REMARK   32  A    between atoms: _75  and  _76
REMARK   33  A    between atoms: _75  and  _78
REMARK   34  A    between atoms: _78  and  _79
REMARK   35  A    between atoms: _84  and  _85
REMARK   36  A    between atoms: _87  and  _89
REMARK   37  A    between atoms: _89  and  _90
REMARK   38  A    between atoms: _89  and  _92
REMARK   39  A    between atoms: _92  and  _93
REMARK   40  A    between atoms: _98  and  _99
REMARK   41  A    between atoms: _101  and  _103
REMARK   42  A    between atoms: _103  and  _104
REMARK   43  A    between atoms: _107  and  _109
REMARK   44  A    between atoms: _109  and  _110
REMARK   45  A    between atoms: _109  and  _112
REMARK   46  A    between atoms: _112  and  _113
REMARK   47  A    between atoms: _113  and  _114
REMARK   48  A    between atoms: _114  and  _115
REMARK   49  A    between atoms: _115  and  _116
REMARK   50  A    between atoms: _120  and  _122
REMARK   51  A    between atoms: _122  and  _123
REMARK   52  A    between atoms: _122  and  _125
REMARK   53  A    between atoms: _125  and  _126
REMARK   54  A    between atoms: _129  and  _131
REMARK   55  A    between atoms: _131  and  _132
REMARK   56  A    between atoms: _131  and  _134
REMARK   57  A    between atoms: _134  and  _135
REMARK   58  A    between atoms: _137  and  _139
REMARK   59  A    between atoms: _139  and  _140
REMARK   60  A    between atoms: _139  and  _142
REMARK   61  A    between atoms: _142  and  _143
REMARK   62  A    between atoms: _143  and  _253
REMARK   63  A    between atoms: _144  and  _146
REMARK   64  A    between atoms: _146  and  _147
REMARK   65  A    between atoms: _146  and  _149
REMARK   66  A    between atoms: _149  and  _150
REMARK   67  A    between atoms: _150  and  _151
REMARK   68  A    between atoms: _156  and  _158
REMARK   69  A    between atoms: _158  and  _159
REMARK   70  A    between atoms: _161  and  _163
REMARK   71  A    between atoms: _163  and  _164
REMARK   72  A    between atoms: _163  and  _166
REMARK   73  A    between atoms: _166  and  _167
REMARK   74  A    between atoms: _170  and  _172
REMARK   75  A    between atoms: _172  and  _173
REMARK   76  A    between atoms: _172  and  _175
REMARK   77  A    between atoms: _175  and  _176
REMARK   78  A    between atoms: _178  and  _180
REMARK   79  A    between atoms: _180  and  _181
REMARK   80  A    between atoms: _183  and  _185
REMARK   81  A    between atoms: _185  and  _186
REMARK   82  A    between atoms: _188  and  _190
REMARK   83  A    between atoms: _190  and  _191
REMARK   84  A    between atoms: _190  and  _193
REMARK   85  A    between atoms: _193  and  _194
REMARK   86  A    between atoms: _197  and  _199
REMARK   87  A    between atoms: _199  and  _200
REMARK   88  A    between atoms: _199  and  _202
REMARK   89  A    between atoms: _205  and  _207
REMARK   90  A    between atoms: _207  and  _208
REMARK   91  A    between atoms: _207  and  _210
REMARK   92  A    between atoms: _210  and  _211
REMARK   93  A    between atoms: _213  and  _215
REMARK   94  A    between atoms: _215  and  _216
REMARK   95  A    between atoms: _215  and  _218
REMARK   96  A    between atoms: _218  and  _219
REMARK   97  A    between atoms: _229  and  _231
REMARK   98  A    between atoms: _231  and  _232
REMARK   99  A    between atoms: _234  and  _236
REMARK  100  A    between atoms: _236  and  _237
REMARK  101  A    between atoms: _236  and  _239
REMARK  102  A    between atoms: _239  and  _240
REMARK  103  A    between atoms: _242  and  _244
REMARK  104  A    between atoms: _244  and  _245
REMARK  105  A    between atoms: _247  and  _249
REMARK  106  A    between atoms: _249  and  _250
REMARK  107  A    between atoms: _249  and  _252
REMARK  108  A    between atoms: _252  and  _253
REMARK  109  A    between atoms: _254  and  _256
REMARK  110  A    between atoms: _256  and  _257
REMARK  111  A    between atoms: _260  and  _262
REMARK  112  A    between atoms: _262  and  _263
REMARK  113  A    between atoms: _262  and  _265
REMARK  114  A    between atoms: _265  and  _266
REMARK  115  A    between atoms: _266  and  _267
REMARK  116  A    between atoms: _272  and  _274
REMARK  117  A    between atoms: _274  and  _275
REMARK  118  A    between atoms: _274  and  _277
REMARK  119  A    between atoms: _277  and  _278
REMARK  120  A    between atoms: _278  and  _279
REMARK  121  A    between atoms: _279  and  _280
REMARK  122  A    between atoms: _280  and  _281
REMARK  123  A    between atoms: _286  and  _287
REMARK  124  A    between atoms: _292  and  _294
REMARK  125  A    between atoms: _294  and  _295
REMARK  126  A    between atoms: _297  and  _299
REMARK  127  A    between atoms: _299  and  _300
REMARK  128  A    between atoms: _299  and  _302
REMARK  129  A    between atoms: _305  and  _307
REMARK  130  A    between atoms: _307  and  _308
REMARK  131  A    between atoms: _307  and  _310
REMARK  132  A    between atoms: _310  and  _311
REMARK  133  A    between atoms: _316  and  _317
REMARK                            x       y       z     vdW  Elec       q    Type
REMARK                         _______ _______ _______ _____ _____    ______ ____
ROOT
ATOM      1  CB  ASN A   1      -9.793  14.306  12.795  0.00  0.00    +0.110 C 
ENDROOT
BRANCH   1   2
ATOM      2  CG  ASN A   1     -11.011  13.626  13.402  0.00  0.00    +0.221 C 
ATOM      3  ND2 ASN A   1     -10.697  12.419  14.022  0.00  0.00    -0.329 N 
ATOM      4 HD21 ASN A   1     -11.447  11.852  14.466  0.00  0.00    +0.145 HD
ATOM      5 HD22 ASN A   1      -9.712  12.085  14.041  0.00  0.00    +0.145 HD
ATOM      6  OD1 ASN A   1     -12.149  14.068  13.349  0.00  0.00    -0.275 OA
ENDBRANCH   1   2
BRANCH   1   7
ATOM      7  CA  ASN A   1     -10.090  15.662  12.124  0.00  0.00    +0.142 C 
BRANCH   7   8
ATOM      8  N   ASN A   1      -8.866  16.042  11.393  0.00  0.00    -0.239 NA
ATOM      9  H   ASN A   1      -8.074  15.370  11.347  0.00  0.00    +0.142 HD
ENDBRANCH   7   8
BRANCH   7  10
ATOM     10  C   ASN A   1     -10.494  16.769  13.145  0.00  0.00    +0.225 C 
ATOM     11  O   ASN A   1      -9.580  17.260  13.863  0.00  0.00    -0.287 OA
ENDBRANCH   7  10
ENDBRANCH   1   7
TORSDOF 4
REMARK  Name = ../refined-set-2016/4abe/4abe_pocket.pdb
REMARK  133 active torsions:
REMARK  status: ('A' for Active; 'I' for Inactive)
REMARK    1  A    between atoms: _1  and  _5
REMARK    2  A    between atoms: _5  and  _6
REMARK    3  A    between atoms: _5  and  _8
REMARK    4  A    between atoms: _8  and  _9
REMARK    5  A    between atoms: _12  and  _14
REMARK    6  A    between atoms: _14  and  _15
REMARK    7  A    between atoms: _14  and  _17
REMARK    8  A    between atoms: _20  and  _22
REMARK    9  A    between atoms: _22  and  _23
REMARK   10  A    between atoms: _22  and  _25
REMARK   11  A    between atoms: _25  and  _26
REMARK   12  A    between atoms: _31  and  _33
REMARK   13  A    between atoms: _33  and  _34
REMARK   14  A    between atoms: _33  and  _36
REMARK   15  A    between atoms: _36  and  _37
REMARK   16  A    between atoms: _40  and  _42
REMARK   17  A    between atoms: _42  and  _43
REMARK   18  A    between atoms: _42  and  _45
REMARK   19  A    between atoms: _45  and  _46
REMARK   20  A    between atoms: _49  and  _51
REMARK   21  A    between atoms: _51  and  _52
REMARK   22  A    between atoms: _51  and  _54
REMARK   23  A    between atoms: _54  and  _55
REMARK   24  A    between atoms: _60  and  _62
REMARK   25  A    between atoms: _62  and  _63
REMARK   26  A    between atoms: _62  and  _65
REMARK   27  A    between atoms: _65  and  _66
REMARK   28  A    between atoms: _66  and  _67
REMARK   29  A    between atoms: _67  and  _68
REMARK   30  A    between atoms: _68  and  _69
REMARK   31  A    between atoms: _73  and  _75
REMARK   32  A    between atoms: _75  and  _76
REMARK   33  A    between atoms: _75  and  _78
REMARK   34  A    between atoms: _78  and  _79
REMARK   35  A    between atoms: _84  and  _85
REMARK   36  A    between atoms: _87  and  _89
REMARK   37  A    between atoms: _89  and  _90
REMARK   38  A    between atoms: _89  and  _92
REMARK   39  A    between atoms: _92  and  _93
REMARK   40  A    between atoms: _98  and  _99
REMARK   41  A    between atoms: _101  and  _103
REMARK   42  A    between atoms: _103  and  _104
REMARK   43  A    between atoms: _107  and  _109
REMARK   44  A    between atoms: _109  and  _110
REMARK   45  A    between atoms: _109  and  _112
REMARK   46  A    between atoms: _112  and  _113
REMARK   47  A    between atoms: _113  and  _114
REMARK   48  A    between atoms: _114  and  _115
REMARK   49  A    between atoms: _115  and  _116
REMARK   50  A    between atoms: _120  and  _122
REMARK   51  A    between atoms: _122  and  _123
REMARK   52  A    between atoms: _122  and  _125
REMARK   53  A    between atoms: _125  and  _126
REMARK   54  A    between atoms: _129  and  _131
REMARK   55  A    between atoms: _131  and  _132
REMARK   56  A    between atoms: _131  and  _134
REMARK   57  A    between atoms: _134  and  _135
REMARK   58  A    between atoms: _137  and  _139
REMARK   59  A    between atoms: _139  and  _140
REMARK   60  A    between atoms: _139  and  _142
REMARK   61  A    between atoms: _142  and  _143
REMARK   62  A    between atoms: _143  and  _253
REMARK   63  A    between atoms: _144  and  _146
REMARK   64  A    between atoms: _146  and  _147
REMARK   65  A    between atoms: _146  and  _149
REMARK   66  A    between atoms: _149  and  _150
REMARK   67  A    between atoms: _150  and  _151
REMARK   68  A    between atoms: _156  and  _158
REMARK   69  A    between atoms: _158  and  _159
REMARK   70  A    between atoms: _161  and  _163
REMARK   71  A    between atoms: _163  and  _164
REMARK   72  A    between atoms: _163  and  _166
REMARK   73  A    between atoms: _166  and  _167
REMARK   74  A    between atoms: _170  and  _172
REMARK   75  A    between atoms: _172  and  _173
REMARK   76  A    between atoms: _172  and  _175
REMARK   77  A    between atoms: _175  and  _176
REMARK   78  A    between atoms: _178  and  _180
REMARK   79  A    between atoms: _180  and  _181
REMARK   80  A    between atoms: _183  and  _185
REMARK   81  A    between atoms: _185  and  _186
REMARK   82  A    between atoms: _188  and  _190
REMARK   83  A    between atoms: _190  and  _191
REMARK   84  A    between atoms: _190  and  _193
REMARK   85  A    between atoms: _193  and  _194
REMARK   86  A    between atoms: _197  and  _199
REMARK   87  A    between atoms: _199  and  _200
REMARK   88  A    between atoms: _199  and  _202
REMARK   89  A    between atoms: _205  and  _207
REMARK   90  A    between atoms: _207  and  _208
REMARK   91  A    between atoms: _207  and  _210
REMARK   92  A    between atoms: _210  and  _211
REMARK   93  A    between atoms: _213  and  _215
REMARK   94  A    between atoms: _215  and  _216
REMARK   95  A    between atoms: _215  and  _218
REMARK   96  A    between atoms: _218  and  _219
REMARK   97  A    between atoms: _229  and  _231
REMARK   98  A    between atoms: _231  and  _232
REMARK   99  A    between atoms: _234  and  _236
REMARK  100  A    between atoms: _236  and  _237
REMARK  101  A    between atoms: _236  and  _239
REMARK  102  A    between atoms: _239  and  _240
REMARK  103  A    between atoms: _242  and  _244
REMARK  104  A    between atoms: _244  and  _245
REMARK  105  A    between atoms: _247  and  _249
REMARK  106  A    between atoms: _249  and  _250
REMARK  107  A    between atoms: _249  and  _252
REMARK  108  A    between atoms: _252  and  _253
REMARK  109  A    between atoms: _254  and  _256
REMARK  110  A    between atoms: _256  and  _257
REMARK  111  A    between atoms: _260  and  _262
REMARK  112  A    between atoms: _262  and  _263
REMARK  113  A    between atoms: _262  and  _265
REMARK  114  A    between atoms: _265  and  _266
REMARK  115  A    between atoms: _266  and  _267
REMARK  116  A    between atoms: _272  and  _274
REMARK  117  A    between atoms: _274  and  _275
REMARK  118  A    between atoms: _274  and  _277
REMARK  119  A    between atoms: _277  and  _278
REMARK  120  A    between atoms: _278  and  _279
REMARK  121  A    between atoms: _279  and  _280
REMARK  122  A    between atoms: _280  and  _281
REMARK  123  A    between atoms: _286  and  _287
REMARK  124  A    between atoms: _292  and  _294
REMARK  125  A    between atoms: _294  and  _295
REMARK  126  A    between atoms: _297  and  _299
REMARK  127  A    between atoms: _299  and  _300
REMARK  128  A    between atoms: _299  and  _302
REMARK  129  A    between atoms: _305  and  _307
REMARK  130  A    between atoms: _307  and  _308
REMARK  131  A    between atoms: _307  and  _310
REMARK  132  A    between atoms: _310  and  _311
REMARK  133  A    between atoms: _316  and  _317
REMARK                            x       y       z     vdW  Elec       q    Type
REMARK                         _______ _______ _______ _____ _____    ______ ____
ROOT
ATOM      1  CG  LYS A   1     -16.078  15.102  15.928  0.00  0.00    -0.000 C 
ENDROOT
BRANCH   1   2
ATOM      2  CB  LYS A   1     -14.769  14.459  16.339  0.00  0.00    +0.025 C 
BRANCH   2   3
ATOM      3  CA  LYS A   1     -13.591  15.340  16.730  0.00  0.00    +0.133 C 
BRANCH   3   4
ATOM      4  N   LYS A   1     -12.995  15.979  15.516  0.00  0.00    -0.239 NA
ATOM      5  H   LYS A   1     -12.614  15.394  14.745  0.00  0.00    +0.142 HD
ENDBRANCH   3   4
BRANCH   3   6
ATOM      6  C   LYS A   1     -12.529  14.521  17.502  0.00  0.00    +0.224 C 
ATOM      7  O   LYS A   1     -11.645  13.851  16.896  0.00  0.00    -0.287 OA
ENDBRANCH   3   6
ENDBRANCH   2   3
ENDBRANCH   1   2
BRANCH   1   8
ATOM      8  CD  LYS A   1     -17.013  14.009  15.439  0.00  0.00    -0.024 C 
BRANCH   8   9
ATOM      9  CE  LYS A   1     -18.321  14.585  14.921  0.00  0.00    -0.086 C 
BRANCH   9  10
ATOM     10  NZ  LYS A   1     -18.750  15.787  15.726  0.00  0.00    +0.380 N 
ATOM     11  HZ1 LYS A   1     -18.882  15.508  16.719  0.00  0.00    -0.089 HD
ATOM     12  HZ2 LYS A   1     -18.018  16.523  15.665  0.00  0.00    -0.089 HD
ATOM     13  HZ3 LYS A   1     -19.645  16.155  15.346  0.00  0.00    -0.089 HD
ENDBRANCH   9  10
ENDBRANCH   8   9
ENDBRANCH   1   8
TORSDOF 7
REMARK  Name = ../refined-set-2016/4abe/4abe_pocket.pdb
REMARK  133 active torsions:
REMARK  status: ('A' for Active; 'I' for Inactive)
REMARK    1  A    between atoms: _1  and  _5
REMARK    2  A    between atoms: _5  and  _6
REMARK    3  A    between atoms: _5  and  _8
REMARK    4  A    between atoms: _8  and  _9
REMARK    5  A    between atoms: _12  and  _14
REMARK    6  A    between atoms: _14  and  _15
REMARK    7  A    between atoms: _14  and  _17
REMARK    8  A    between atoms: _20  and  _22
REMARK    9  A    between atoms: _22  and  _23
REMARK   10  A    between atoms: _22  and  _25
REMARK   11  A    between atoms: _25  and  _26
REMARK   12  A    between atoms: _31  and  _33
REMARK   13  A    between atoms: _33  and  _34
REMARK   14  A    between atoms: _33  and  _36
REMARK   15  A    between atoms: _36  and  _37
REMARK   16  A    between atoms: _40  and  _42
REMARK   17  A    between atoms: _42  and  _43
REMARK   18  A    between atoms: _42  and  _45
REMARK   19  A    between atoms: _45  and  _46
REMARK   20  A    between atoms: _49  and  _51
REMARK   21  A    between atoms: _51  and  _52
REMARK   22  A    between atoms: _51  and  _54
REMARK   23  A    between atoms: _54  and  _55
REMARK   24  A    between atoms: _60  and  _62
REMARK   25  A    between atoms: _62  and  _63
REMARK   26  A    between atoms: _62  and  _65
REMARK   27  A    between atoms: _65  and  _66
REMARK   28  A    between atoms: _66  and  _67
REMARK   29  A    between atoms: _67  and  _68
REMARK   30  A    between atoms: _68  and  _69
REMARK   31  A    between atoms: _73  and  _75
REMARK   32  A    between atoms: _75  and  _76
REMARK   33  A    between atoms: _75  and  _78
REMARK   34  A    between atoms: _78  and  _79
REMARK   35  A    between atoms: _84  and  _85
REMARK   36  A    between atoms: _87  and  _89
REMARK   37  A    between atoms: _89  and  _90
REMARK   38  A    between atoms: _89  and  _92
REMARK   39  A    between atoms: _92  and  _93
REMARK   40  A    between atoms: _98  and  _99
REMARK   41  A    between atoms: _101  and  _103
REMARK   42  A    between atoms: _103  and  _104
REMARK   43  A    between atoms: _107  and  _109
REMARK   44  A    between atoms: _109  and  _110
REMARK   45  A    between atoms: _109  and  _112
REMARK   46  A    between atoms: _112  and  _113
REMARK   47  A    between atoms: _113  and  _114
REMARK   48  A    between atoms: _114  and  _115
REMARK   49  A    between atoms: _115  and  _116
REMARK   50  A    between atoms: _120  and  _122
REMARK   51  A    between atoms: _122  and  _123
REMARK   52  A    between atoms: _122  and  _125
REMARK   53  A    between atoms: _125  and  _126
REMARK   54  A    between atoms: _129  and  _131
REMARK   55  A    between atoms: _131  and  _132
REMARK   56  A    between atoms: _131  and  _134
REMARK   57  A    between atoms: _134  and  _135
REMARK   58  A    between atoms: _137  and  _139
REMARK   59  A    between atoms: _139  and  _140
REMARK   60  A    between atoms: _139  and  _142
REMARK   61  A    between atoms: _142  and  _143
REMARK   62  A    between atoms: _143  and  _253
REMARK   63  A    between atoms: _144  and  _146
REMARK   64  A    between atoms: _146  and  _147
REMARK   65  A    between atoms: _146  and  _149
REMARK   66  A    between atoms: _149  and  _150
REMARK   67  A    between atoms: _150  and  _151
REMARK   68  A    between atoms: _156  and  _158
REMARK   69  A    between atoms: _158  and  _159
REMARK   70  A    between atoms: _161  and  _163
REMARK   71  A    between atoms: _163  and  _164
REMARK   72  A    between atoms: _163  and  _166
REMARK   73  A    between atoms: _166  and  _167
REMARK   74  A    between atoms: _170  and  _172
REMARK   75  A    between atoms: _172  and  _173
REMARK   76  A    between atoms: _172  and  _175
REMARK   77  A    between atoms: _175  and  _176
REMARK   78  A    between atoms: _178  and  _180
REMARK   79  A    between atoms: _180  and  _181
REMARK   80  A    between atoms: _183  and  _185
REMARK   81  A    between atoms: _185  and  _186
REMARK   82  A    between atoms: _188  and  _190
REMARK   83  A    between atoms: _190  and  _191
REMARK   84  A    between atoms: _190  and  _193
REMARK   85  A    between atoms: _193  and  _194
REMARK   86  A    between atoms: _197  and  _199
REMARK   87  A    between atoms: _199  and  _200
REMARK   88  A    between atoms: _199  and  _202
REMARK   89  A    between atoms: _205  and  _207
REMARK   90  A    between atoms: _207  and  _208
REMARK   91  A    between atoms: _207  and  _210
REMARK   92  A    between atoms: _210  and  _211
REMARK   93  A    between atoms: _213  and  _215
REMARK   94  A    between atoms: _215  and  _216
REMARK   95  A    between atoms: _215  and  _218
REMARK   96  A    between atoms: _218  and  _219
REMARK   97  A    between atoms: _229  and  _231
REMARK   98  A    between atoms: _231  and  _232
REMARK   99  A    between atoms: _234  and  _236
REMARK  100  A    between atoms: _236  and  _237
REMARK  101  A    between atoms: _236  and  _239
REMARK  102  A    between atoms: _239  and  _240
REMARK  103  A    between atoms: _242  and  _244
REMARK  104  A    between atoms: _244  and  _245
REMARK  105  A    between atoms: _247  and  _249
REMARK  106  A    between atoms: _249  and  _250
REMARK  107  A    between atoms: _249  and  _252
REMARK  108  A    between atoms: _252  and  _253
REMARK  109  A    between atoms: _254  and  _256
REMARK  110  A    between atoms: _256  and  _257
REMARK  111  A    between atoms: _260  and  _262
REMARK  112  A    between atoms: _262  and  _263
REMARK  113  A    between atoms: _262  and  _265
REMARK  114  A    between atoms: _265  and  _266
REMARK  115  A    between atoms: _266  and  _267
REMARK  116  A    between atoms: _272  and  _274
REMARK  117  A    between atoms: _274  and  _275
REMARK  118  A    between atoms: _274  and  _277
REMARK  119  A    between atoms: _277  and  _278
REMARK  120  A    between atoms: _278  and  _279
REMARK  121  A    between atoms: _279  and  _280
REMARK  122  A    between atoms: _280  and  _281
REMARK  123  A    between atoms: _286  and  _287
REMARK  124  A    between atoms: _292  and  _294
REMARK  125  A    between atoms: _294  and  _295
REMARK  126  A    between atoms: _297  and  _299
REMARK  127  A    between atoms: _299  and  _300
REMARK  128  A    between atoms: _299  and  _302
REMARK  129  A    between atoms: _305  and  _307
REMARK  130  A    between atoms: _307  and  _308
REMARK  131  A    between atoms: _307  and  _310
REMARK  132  A    between atoms: _310  and  _311
REMARK  133  A    between atoms: _316  and  _317
REMARK                            x       y       z     vdW  Elec       q    Type
REMARK                         _______ _______ _______ _____ _____    ______ ____
ROOT
ATOM      1  CG  TYR A   1     -11.334  14.137   8.027  0.00  0.00    -0.020 A 
ATOM      2  CD2 TYR A   1     -11.833  12.943   8.512  0.00  0.00    -0.001 A 
ATOM      3  CE2 TYR A   1     -11.008  12.011   9.162  0.00  0.00    +0.036 A 
ATOM      4  CZ  TYR A   1      -9.706  12.361   9.419  0.00  0.00    +0.134 A 
ATOM      5  CE1 TYR A   1      -9.192  13.579   8.995  0.00  0.00    +0.036 A 
ATOM      6  CD1 TYR A   1     -10.012  14.487   8.356  0.00  0.00    -0.001 A 
ENDROOT
BRANCH   4   7
ATOM      7  OH  TYR A   1      -8.862  11.479  10.118  0.00  0.00    -0.506 OA
ATOM      8  HH  TYR A   1      -8.089  11.241   9.547  0.00  0.00    +0.292 HD
ENDBRANCH   4   7
BRANCH   1   9
ATOM      9  CB  TYR A   1     -12.197  15.164   7.338  0.00  0.00    +0.051 C 
BRANCH   9  10
ATOM     10  CA  TYR A   1     -13.008  16.048   8.356  0.00  0.00    +0.137 C 
BRANCH  10  11
ATOM     11  N   TYR A   1     -14.079  15.282   9.018  0.00  0.00    -0.239 NA
ATOM     12  H   TYR A   1     -14.741  14.744   8.423  0.00  0.00    +0.142 HD
ENDBRANCH  10  11
BRANCH  10  13
ATOM     13  C   TYR A   1     -13.616  17.241   7.744  0.00  0.00    +0.224 C 
ATOM     14  O   TYR A   1     -14.613  17.125   6.978  0.00  0.00    -0.287 OA
ENDBRANCH  10  13
ENDBRANCH   9  10
ENDBRANCH   1   9
TORSDOF 5
REMARK  Name = ../refined-set-2016/4abe/4abe_pocket.pdb
REMARK  133 active torsions:
REMARK  status: ('A' for Active; 'I' for Inactive)
REMARK    1  A    between atoms: _1  and  _5
REMARK    2  A    between atoms: _5  and  _6
REMARK    3  A    between atoms: _5  and  _8
REMARK    4  A    between atoms: _8  and  _9
REMARK    5  A    between atoms: _12  and  _14
REMARK    6  A    between atoms: _14  and  _15
REMARK    7  A    between atoms: _14  and  _17
REMARK    8  A    between atoms: _20  and  _22
REMARK    9  A    between atoms: _22  and  _23
REMARK   10  A    between atoms: _22  and  _25
REMARK   11  A    between atoms: _25  and  _26
REMARK   12  A    between atoms: _31  and  _33
REMARK   13  A    between atoms: _33  and  _34
REMARK   14  A    between atoms: _33  and  _36
REMARK   15  A    between atoms: _36  and  _37
REMARK   16  A    between atoms: _40  and  _42
REMARK   17  A    between atoms: _42  and  _43
REMARK   18  A    between atoms: _42  and  _45
REMARK   19  A    between atoms: _45  and  _46
REMARK   20  A    between atoms: _49  and  _51
REMARK   21  A    between atoms: _51  and  _52
REMARK   22  A    between atoms: _51  and  _54
REMARK   23  A    between atoms: _54  and  _55
REMARK   24  A    between atoms: _60  and  _62
REMARK   25  A    between atoms: _62  and  _63
REMARK   26  A    between atoms: _62  and  _65
REMARK   27  A    between atoms: _65  and  _66
REMARK   28  A    between atoms: _66  and  _67
REMARK   29  A    between atoms: _67  and  _68
REMARK   30  A    between atoms: _68  and  _69
REMARK   31  A    between atoms: _73  and  _75
REMARK   32  A    between atoms: _75  and  _76
REMARK   33  A    between atoms: _75  and  _78
REMARK   34  A    between atoms: _78  and  _79
REMARK   35  A    between atoms: _84  and  _85
REMARK   36  A    between atoms: _87  and  _89
REMARK   37  A    between atoms: _89  and  _90
REMARK   38  A    between atoms: _89  and  _92
REMARK   39  A    between atoms: _92  and  _93
REMARK   40  A    between atoms: _98  and  _99
REMARK   41  A    between atoms: _101  and  _103
REMARK   42  A    between atoms: _103  and  _104
REMARK   43  A    between atoms: _107  and  _109
REMARK   44  A    between atoms: _109  and  _110
REMARK   45  A    between atoms: _109  and  _112
REMARK   46  A    between atoms: _112  and  _113
REMARK   47  A    between atoms: _113  and  _114
REMARK   48  A    between atoms: _114  and  _115
REMARK   49  A    between atoms: _115  and  _116
REMARK   50  A    between atoms: _120  and  _122
REMARK   51  A    between atoms: _122  and  _123
REMARK   52  A    between atoms: _122  and  _125
REMARK   53  A    between atoms: _125  and  _126
REMARK   54  A    between atoms: _129  and  _131
REMARK   55  A    between atoms: _131  and  _132
REMARK   56  A    between atoms: _131  and  _134
REMARK   57  A    between atoms: _134  and  _135
REMARK   58  A    between atoms: _137  and  _139
REMARK   59  A    between atoms: _139  and  _140
REMARK   60  A    between atoms: _139  and  _142
REMARK   61  A    between atoms: _142  and  _143
REMARK   62  A    between atoms: _143  and  _253
REMARK   63  A    between atoms: _144  and  _146
REMARK   64  A    between atoms: _146  and  _147
REMARK   65  A    between atoms: _146  and  _149
REMARK   66  A    between atoms: _149  and  _150
REMARK   67  A    between atoms: _150  and  _151
REMARK   68  A    between atoms: _156  and  _158
REMARK   69  A    between atoms: _158  and  _159
REMARK   70  A    between atoms: _161  and  _163
REMARK   71  A    between atoms: _163  and  _164
REMARK   72  A    between atoms: _163  and  _166
REMARK   73  A    between atoms: _166  and  _167
REMARK   74  A    between atoms: _170  and  _172
REMARK   75  A    between atoms: _172  and  _173
REMARK   76  A    between atoms: _172  and  _175
REMARK   77  A    between atoms: _175  and  _176
REMARK   78  A    between atoms: _178  and  _180
REMARK   79  A    between atoms: _180  and  _181
REMARK   80  A    between atoms: _183  and  _185
REMARK   81  A    between atoms: _185  and  _186
REMARK   82  A    between atoms: _188  and  _190
REMARK   83  A    between atoms: _190  and  _191
REMARK   84  A    between atoms: _190  and  _193
REMARK   85  A    between atoms: _193  and  _194
REMARK   86  A    between atoms: _197  and  _199
REMARK   87  A    between atoms: _199  and  _200
REMARK   88  A    between atoms: _199  and  _202
REMARK   89  A    between atoms: _205  and  _207
REMARK   90  A    between atoms: _207  and  _208
REMARK   91  A    between atoms: _207  and  _210
REMARK   92  A    between atoms: _210  and  _211
REMARK   93  A    between atoms: _213  and  _215
REMARK   94  A    between atoms: _215  and  _216
REMARK   95  A    between atoms: _215  and  _218
REMARK   96  A    between atoms: _218  and  _219
REMARK   97  A    between atoms: _229  and  _231
REMARK   98  A    between atoms: _231  and  _232
REMARK   99  A    between atoms: _234  and  _236
REMARK  100  A    between atoms: _236  and  _237
REMARK  101  A    between atoms: _236  and  _239
REMARK  102  A    between atoms: _239  and  _240
REMARK  103  A    between atoms: _242  and  _244
REMARK  104  A    between atoms: _244  and  _245
REMARK  105  A    between atoms: _247  and  _249
REMARK  106  A    between atoms: _249  and  _250
REMARK  107  A    between atoms: _249  and  _252
REMARK  108  A    between atoms: _252  and  _253
REMARK  109  A    between atoms: _254  and  _256
REMARK  110  A    between atoms: _256  and  _257
REMARK  111  A    between atoms: _260  and  _262
REMARK  112  A    between atoms: _262  and  _263
REMARK  113  A    between atoms: _262  and  _265
REMARK  114  A    between atoms: _265  and  _266
REMARK  115  A    between atoms: _266  and  _267
REMARK  116  A    between atoms: _272  and  _274
REMARK  117  A    between atoms: _274  and  _275
REMARK  118  A    between atoms: _274  and  _277
REMARK  119  A    between atoms: _277  and  _278
REMARK  120  A    between atoms: _278  and  _279
REMARK  121  A    between atoms: _279  and  _280
REMARK  122  A    between atoms: _280  and  _281
REMARK  123  A    between atoms: _286  and  _287
REMARK  124  A    between atoms: _292  and  _294
REMARK  125  A    between atoms: _294  and  _295
REMARK  126  A    between atoms: _297  and  _299
REMARK  127  A    between atoms: _299  and  _300
REMARK  128  A    between atoms: _299  and  _302
REMARK  129  A    between atoms: _305  and  _307
REMARK  130  A    between atoms: _307  and  _308
REMARK  131  A    between atoms: _307  and  _310
REMARK  132  A    between atoms: _310  and  _311
REMARK  133  A    between atoms: _316  and  _317
REMARK                            x       y       z     vdW  Elec       q    Type
REMARK                         _______ _______ _______ _____ _____    ______ ____
ROOT
ATOM      1  CG  TYR A   1       3.720  12.783  25.700  0.00  0.00    -0.020 A 
ATOM      2  CD2 TYR A   1       3.341  14.144  25.534  0.00  0.00    -0.001 A 
ATOM      3  CE2 TYR A   1       2.154  14.513  24.883  0.00  0.00    +0.036 A 
ATOM      4  CZ  TYR A   1       1.337  13.526  24.410  0.00  0.00    +0.134 A 
ATOM      5  CE1 TYR A   1       1.667  12.186  24.531  0.00  0.00    +0.036 A 
ATOM      6  CD1 TYR A   1       2.839  11.831  25.219  0.00  0.00    -0.001 A 
ENDROOT
BRANCH   4   7
ATOM      7  OH  TYR A   1       0.185  13.825  23.696  0.00  0.00    -0.506 OA
ATOM      8  HH  TYR A   1       0.426  14.332  22.881  0.00  0.00    +0.292 HD
ENDBRANCH   4   7
BRANCH   1   9
ATOM      9  CB  TYR A   1       5.055  12.413  26.406  0.00  0.00    +0.051 C 
BRANCH   9  10
ATOM     10  CA  TYR A   1       4.907  11.922  27.846  0.00  0.00    +0.137 C 
BRANCH  10  11
ATOM     11  N   TYR A   1       4.458  13.001  28.728  0.00  0.00    -0.239 NA
ATOM     12  H   TYR A   1       5.123  13.758  28.985  0.00  0.00    +0.142 HD
ENDBRANCH  10  11
BRANCH  10  13
ATOM     13  C   TYR A   1       6.286  11.415  28.296  0.00  0.00    +0.224 C 
ATOM     14  O   TYR A   1       7.300  11.613  27.655  0.00  0.00    -0.287 OA
ENDBRANCH  10  13
ENDBRANCH   9  10
ENDBRANCH   1   9
TORSDOF 5
REMARK  Name = ../refined-set-2016/4abe/4abe_pocket.pdb
REMARK  133 active torsions:
REMARK  status: ('A' for Active; 'I' for Inactive)
REMARK    1  A    between atoms: _1  and  _5
REMARK    2  A    between atoms: _5  and  _6
REMARK    3  A    between atoms: _5  and  _8
REMARK    4  A    between atoms: _8  and  _9
REMARK    5  A    between atoms: _12  and  _14
REMARK    6  A    between atoms: _14  and  _15
REMARK    7  A    between atoms: _14  and  _17
REMARK    8  A    between atoms: _20  and  _22
REMARK    9  A    between atoms: _22  and  _23
REMARK   10  A    between atoms: _22  and  _25
REMARK   11  A    between atoms: _25  and  _26
REMARK   12  A    between atoms: _31  and  _33
REMARK   13  A    between atoms: _33  and  _34
REMARK   14  A    between atoms: _33  and  _36
REMARK   15  A    between atoms: _36  and  _37
REMARK   16  A    between atoms: _40  and  _42
REMARK   17  A    between atoms: _42  and  _43
REMARK   18  A    between atoms: _42  and  _45
REMARK   19  A    between atoms: _45  and  _46
REMARK   20  A    between atoms: _49  and  _51
REMARK   21  A    between atoms: _51  and  _52
REMARK   22  A    between atoms: _51  and  _54
REMARK   23  A    between atoms: _54  and  _55
REMARK   24  A    between atoms: _60  and  _62
REMARK   25  A    between atoms: _62  and  _63
REMARK   26  A    between atoms: _62  and  _65
REMARK   27  A    between atoms: _65  and  _66
REMARK   28  A    between atoms: _66  and  _67
REMARK   29  A    between atoms: _67  and  _68
REMARK   30  A    between atoms: _68  and  _69
REMARK   31  A    between atoms: _73  and  _75
REMARK   32  A    between atoms: _75  and  _76
REMARK   33  A    between atoms: _75  and  _78
REMARK   34  A    between atoms: _78  and  _79
REMARK   35  A    between atoms: _84  and  _85
REMARK   36  A    between atoms: _87  and  _89
REMARK   37  A    between atoms: _89  and  _90
REMARK   38  A    between atoms: _89  and  _92
REMARK   39  A    between atoms: _92  and  _93
REMARK   40  A    between atoms: _98  and  _99
REMARK   41  A    between atoms: _101  and  _103
REMARK   42  A    between atoms: _103  and  _104
REMARK   43  A    between atoms: _107  and  _109
REMARK   44  A    between atoms: _109  and  _110
REMARK   45  A    between atoms: _109  and  _112
REMARK   46  A    between atoms: _112  and  _113
REMARK   47  A    between atoms: _113  and  _114
REMARK   48  A    between atoms: _114  and  _115
REMARK   49  A    between atoms: _115  and  _116
REMARK   50  A    between atoms: _120  and  _122
REMARK   51  A    between atoms: _122  and  _123
REMARK   52  A    between atoms: _122  and  _125
REMARK   53  A    between atoms: _125  and  _126
REMARK   54  A    between atoms: _129  and  _131
REMARK   55  A    between atoms: _131  and  _132
REMARK   56  A    between atoms: _131  and  _134
REMARK   57  A    between atoms: _134  and  _135
REMARK   58  A    between atoms: _137  and  _139
REMARK   59  A    between atoms: _139  and  _140
REMARK   60  A    between atoms: _139  and  _142
REMARK   61  A    between atoms: _142  and  _143
REMARK   62  A    between atoms: _143  and  _253
REMARK   63  A    between atoms: _144  and  _146
REMARK   64  A    between atoms: _146  and  _147
REMARK   65  A    between atoms: _146  and  _149
REMARK   66  A    between atoms: _149  and  _150
REMARK   67  A    between atoms: _150  and  _151
REMARK   68  A    between atoms: _156  and  _158
REMARK   69  A    between atoms: _158  and  _159
REMARK   70  A    between atoms: _161  and  _163
REMARK   71  A    between atoms: _163  and  _164
REMARK   72  A    between atoms: _163  and  _166
REMARK   73  A    between atoms: _166  and  _167
REMARK   74  A    between atoms: _170  and  _172
REMARK   75  A    between atoms: _172  and  _173
REMARK   76  A    between atoms: _172  and  _175
REMARK   77  A    between atoms: _175  and  _176
REMARK   78  A    between atoms: _178  and  _180
REMARK   79  A    between atoms: _180  and  _181
REMARK   80  A    between atoms: _183  and  _185
REMARK   81  A    between atoms: _185  and  _186
REMARK   82  A    between atoms: _188  and  _190
REMARK   83  A    between atoms: _190  and  _191
REMARK   84  A    between atoms: _190  and  _193
REMARK   85  A    between atoms: _193  and  _194
REMARK   86  A    between atoms: _197  and  _199
REMARK   87  A    between atoms: _199  and  _200
REMARK   88  A    between atoms: _199  and  _202
REMARK   89  A    between atoms: _205  and  _207
REMARK   90  A    between atoms: _207  and  _208
REMARK   91  A    between atoms: _207  and  _210
REMARK   92  A    between atoms: _210  and  _211
REMARK   93  A    between atoms: _213  and  _215
REMARK   94  A    between atoms: _215  and  _216
REMARK   95  A    between atoms: _215  and  _218
REMARK   96  A    between atoms: _218  and  _219
REMARK   97  A    between atoms: _229  and  _231
REMARK   98  A    between atoms: _231  and  _232
REMARK   99  A    between atoms: _234  and  _236
REMARK  100  A    between atoms: _236  and  _237
REMARK  101  A    between atoms: _236  and  _239
REMARK  102  A    between atoms: _239  and  _240
REMARK  103  A    between atoms: _242  and  _244
REMARK  104  A    between atoms: _244  and  _245
REMARK  105  A    between atoms: _247  and  _249
REMARK  106  A    between atoms: _249  and  _250
REMARK  107  A    between atoms: _249  and  _252
REMARK  108  A    between atoms: _252  and  _253
REMARK  109  A    between atoms: _254  and  _256
REMARK  110  A    between atoms: _256  and  _257
REMARK  111  A    between atoms: _260  and  _262
REMARK  112  A    between atoms: _262  and  _263
REMARK  113  A    between atoms: _262  and  _265
REMARK  114  A    between atoms: _265  and  _266
REMARK  115  A    between atoms: _266  and  _267
REMARK  116  A    between atoms: _272  and  _274
REMARK  117  A    between atoms: _274  and  _275
REMARK  118  A    between atoms: _274  and  _277
REMARK  119  A    between atoms: _277  and  _278
REMARK  120  A    between atoms: _278  and  _279
REMARK  121  A    between atoms: _279  and  _280
REMARK  122  A    between atoms: _280  and  _281
REMARK  123  A    between atoms: _286  and  _287
REMARK  124  A    between atoms: _292  and  _294
REMARK  125  A    between atoms: _294  and  _295
REMARK  126  A    between atoms: _297  and  _299
REMARK  127  A    between atoms: _299  and  _300
REMARK  128  A    between atoms: _299  and  _302
REMARK  129  A    between atoms: _305  and  _307
REMARK  130  A    between atoms: _307  and  _308
REMARK  131  A    between atoms: _307  and  _310
REMARK  132  A    between atoms: _310  and  _311
REMARK  133  A    between atoms: _316  and  _317
REMARK                            x       y       z     vdW  Elec       q    Type
REMARK                         _______ _______ _______ _____ _____    ______ ____
ROOT
ATOM      1  CA  ALA A   1       1.547  23.198  22.858  0.00  0.00    +0.133 C 
ATOM      2  CB  ALA A   1       1.744  24.048  21.579  0.00  0.00    +0.027 C 
ENDROOT
BRANCH   1   3
ATOM      3  N   ALA A   1       2.349  21.958  22.833  0.00  0.00    -0.239 NA
ATOM      4  H   ALA A   1       1.985  21.102  22.368  0.00  0.00    +0.142 HD
ENDBRANCH   1   3
BRANCH   1   5
ATOM      5  C   ALA A   1       0.101  22.751  22.985  0.00  0.00    +0.224 C 
ATOM      6  O   ALA A   1      -0.261  21.666  22.554  0.00  0.00    -0.287 OA
ENDBRANCH   1   5
TORSDOF 2
REMARK  Name = ../refined-set-2016/4abe/4abe_pocket.pdb
REMARK  133 active torsions:
REMARK  status: ('A' for Active; 'I' for Inactive)
REMARK    1  A    between atoms: _1  and  _5
REMARK    2  A    between atoms: _5  and  _6
REMARK    3  A    between atoms: _5  and  _8
REMARK    4  A    between atoms: _8  and  _9
REMARK    5  A    between atoms: _12  and  _14
REMARK    6  A    between atoms: _14  and  _15
REMARK    7  A    between atoms: _14  and  _17
REMARK    8  A    between atoms: _20  and  _22
REMARK    9  A    between atoms: _22  and  _23
REMARK   10  A    between atoms: _22  and  _25
REMARK   11  A    between atoms: _25  and  _26
REMARK   12  A    between atoms: _31  and  _33
REMARK   13  A    between atoms: _33  and  _34
REMARK   14  A    between atoms: _33  and  _36
REMARK   15  A    between atoms: _36  and  _37
REMARK   16  A    between atoms: _40  and  _42
REMARK   17  A    between atoms: _42  and  _43
REMARK   18  A    between atoms: _42  and  _45
REMARK   19  A    between atoms: _45  and  _46
REMARK   20  A    between atoms: _49  and  _51
REMARK   21  A    between atoms: _51  and  _52
REMARK   22  A    between atoms: _51  and  _54
REMARK   23  A    between atoms: _54  and  _55
REMARK   24  A    between atoms: _60  and  _62
REMARK   25  A    between atoms: _62  and  _63
REMARK   26  A    between atoms: _62  and  _65
REMARK   27  A    between atoms: _65  and  _66
REMARK   28  A    between atoms: _66  and  _67
REMARK   29  A    between atoms: _67  and  _68
REMARK   30  A    between atoms: _68  and  _69
REMARK   31  A    between atoms: _73  and  _75
REMARK   32  A    between atoms: _75  and  _76
REMARK   33  A    between atoms: _75  and  _78
REMARK   34  A    between atoms: _78  and  _79
REMARK   35  A    between atoms: _84  and  _85
REMARK   36  A    between atoms: _87  and  _89
REMARK   37  A    between atoms: _89  and  _90
REMARK   38  A    between atoms: _89  and  _92
REMARK   39  A    between atoms: _92  and  _93
REMARK   40  A    between atoms: _98  and  _99
REMARK   41  A    between atoms: _101  and  _103
REMARK   42  A    between atoms: _103  and  _104
REMARK   43  A    between atoms: _107  and  _109
REMARK   44  A    between atoms: _109  and  _110
REMARK   45  A    between atoms: _109  and  _112
REMARK   46  A    between atoms: _112  and  _113
REMARK   47  A    between atoms: _113  and  _114
REMARK   48  A    between atoms: _114  and  _115
REMARK   49  A    between atoms: _115  and  _116
REMARK   50  A    between atoms: _120  and  _122
REMARK   51  A    between atoms: _122  and  _123
REMARK   52  A    between atoms: _122  and  _125
REMARK   53  A    between atoms: _125  and  _126
REMARK   54  A    between atoms: _129  and  _131
REMARK   55  A    between atoms: _131  and  _132
REMARK   56  A    between atoms: _131  and  _134
REMARK   57  A    between atoms: _134  and  _135
REMARK   58  A    between atoms: _137  and  _139
REMARK   59  A    between atoms: _139  and  _140
REMARK   60  A    between atoms: _139  and  _142
REMARK   61  A    between atoms: _142  and  _143
REMARK   62  A    between atoms: _143  and  _253
REMARK   63  A    between atoms: _144  and  _146
REMARK   64  A    between atoms: _146  and  _147
REMARK   65  A    between atoms: _146  and  _149
REMARK   66  A    between atoms: _149  and  _150
REMARK   67  A    between atoms: _150  and  _151
REMARK   68  A    between atoms: _156  and  _158
REMARK   69  A    between atoms: _158  and  _159
REMARK   70  A    between atoms: _161  and  _163
REMARK   71  A    between atoms: _163  and  _164
REMARK   72  A    between atoms: _163  and  _166
REMARK   73  A    between atoms: _166  and  _167
REMARK   74  A    between atoms: _170  and  _172
REMARK   75  A    between atoms: _172  and  _173
REMARK   76  A    between atoms: _172  and  _175
REMARK   77  A    between atoms: _175  and  _176
REMARK   78  A    between atoms: _178  and  _180
REMARK   79  A    between atoms: _180  and  _181
REMARK   80  A    between atoms: _183  and  _185
REMARK   81  A    between atoms: _185  and  _186
REMARK   82  A    between atoms: _188  and  _190
REMARK   83  A    between atoms: _190  and  _191
REMARK   84  A    between atoms: _190  and  _193
REMARK   85  A    between atoms: _193  and  _194
REMARK   86  A    between atoms: _197  and  _199
REMARK   87  A    between atoms: _199  and  _200
REMARK   88  A    between atoms: _199  and  _202
REMARK   89  A    between atoms: _205  and  _207
REMARK   90  A    between atoms: _207  and  _208
REMARK   91  A    between atoms: _207  and  _210
REMARK   92  A    between atoms: _210  and  _211
REMARK   93  A    between atoms: _213  and  _215
REMARK   94  A    between atoms: _215  and  _216
REMARK   95  A    between atoms: _215  and  _218
REMARK   96  A    between atoms: _218  and  _219
REMARK   97  A    between atoms: _229  and  _231
REMARK   98  A    between atoms: _231  and  _232
REMARK   99  A    between atoms: _234  and  _236
REMARK  100  A    between atoms: _236  and  _237
REMARK  101  A    between atoms: _236  and  _239
REMARK  102  A    between atoms: _239  and  _240
REMARK  103  A    between atoms: _242  and  _244
REMARK  104  A    between atoms: _244  and  _245
REMARK  105  A    between atoms: _247  and  _249
REMARK  106  A    between atoms: _249  and  _250
REMARK  107  A    between atoms: _249  and  _252
REMARK  108  A    between atoms: _252  and  _253
REMARK  109  A    between atoms: _254  and  _256
REMARK  110  A    between atoms: _256  and  _257
REMARK  111  A    between atoms: _260  and  _262
REMARK  112  A    between atoms: _262  and  _263
REMARK  113  A    between atoms: _262  and  _265
REMARK  114  A    between atoms: _265  and  _266
REMARK  115  A    between atoms: _266  and  _267
REMARK  116  A    between atoms: _272  and  _274
REMARK  117  A    between atoms: _274  and  _275
REMARK  118  A    between atoms: _274  and  _277
REMARK  119  A    between atoms: _277  and  _278
REMARK  120  A    between atoms: _278  and  _279
REMARK  121  A    between atoms: _279  and  _280
REMARK  122  A    between atoms: _280  and  _281
REMARK  123  A    between atoms: _286  and  _287
REMARK  124  A    between atoms: _292  and  _294
REMARK  125  A    between atoms: _294  and  _295
REMARK  126  A    between atoms: _297  and  _299
REMARK  127  A    between atoms: _299  and  _300
REMARK  128  A    between atoms: _299  and  _302
REMARK  129  A    between atoms: _305  and  _307
REMARK  130  A    between atoms: _307  and  _308
REMARK  131  A    between atoms: _307  and  _310
REMARK  132  A    between atoms: _310  and  _311
REMARK  133  A    between atoms: _316  and  _317
REMARK                            x       y       z     vdW  Elec       q    Type
REMARK                         _______ _______ _______ _____ _____    ______ ____
ROOT
ATOM      1  CB  SER A   8      -7.173  14.593  18.787  0.00  0.00    +0.098 C 
ENDROOT
BRANCH   1   2
ATOM      2  SG  SER A   8      -6.325  13.701  17.461  0.00  0.00    -0.080 S 
BRANCH   2   3
ATOM      3  SG  TRP A   4      -7.513  14.208  15.846  0.00  0.00    -0.080 S 
BRANCH   3   4
ATOM      4  CB  TRP A   4      -6.869  15.852  15.358  0.00  0.00    +0.098 C 
BRANCH   4   5
ATOM      5  CA  TRP A   4      -5.308  15.908  15.125  0.00  0.00    +0.160 C 
BRANCH   5   8
ATOM      6  C   SER A   3      -4.688  17.839  16.429  0.00  0.00    +0.243 C 
ATOM      7  O   SER A   3      -4.794  17.176  17.482  0.00  0.00    -0.273 OA
ATOM      8  N   TRP A   4      -4.910  17.320  15.231  0.00  0.00    -0.296 N 
ATOM      9  H   TRP A   4      -4.804  17.903  14.376  0.00  0.00    +0.150 HD
BRANCH   6  10
ATOM     10  CA  SER A   3      -4.314  19.288  16.470  0.00  0.00    +0.178 C 
BRANCH  10  12
ATOM     11  C   VAL A   2      -5.617  20.103  18.400  0.00  0.00    +0.241 C 
ATOM     12  N   SER A   3      -4.442  19.834  17.856  0.00  0.00    -0.295 N 
ATOM     13  H   SER A   3      -3.579  20.008  18.410  0.00  0.00    +0.150 HD
ATOM     14  O   VAL A   2      -6.631  20.305  17.675  0.00  0.00    -0.273 OA
BRANCH  11  15
ATOM     15  CA  VAL A   2      -5.642  20.285  19.911  0.00  0.00    +0.160 C 
BRANCH  15  18
ATOM     16  C   ILE A   1      -7.066  21.448  21.526  0.00  0.00    +0.238 C 
ATOM     17  O   ILE A   1      -6.123  21.469  22.361  0.00  0.00    -0.274 OA
ATOM     18  N   VAL A   2      -6.955  20.923  20.290  0.00  0.00    -0.297 N 
ATOM     19  H   VAL A   2      -7.749  20.957  19.619  0.00  0.00    +0.150 HD
BRANCH  16  20
ATOM     20  CA  ILE A   1      -8.446  21.931  21.932  0.00  0.00    +0.145 C 
BRANCH  20  21
ATOM     21  N   ILE A   1      -8.872  21.065  23.073  0.00  0.00    -0.238 NA
ATOM     22  H   ILE A   1      -8.188  20.821  23.818  0.00  0.00    +0.142 HD
ENDBRANCH  20  21
BRANCH  20  23
ATOM     23  CB  ILE A   1      -8.449  23.411  22.354  0.00  0.00    +0.026 C 
BRANCH  23  24
ATOM     24  CG  ILE A   1      -9.877  23.970  22.580  0.00  0.00    -0.000 C 
BRANCH  24  25
ATOM     25  CD  ILE A   1      -9.897  25.449  23.010  0.00  0.00    -0.024 C 
BRANCH  25  26
ATOM     26  CE  ILE A   1      -9.272  25.586  24.380  0.00  0.00    -0.086 C 
BRANCH  26  27
ATOM     27  NZ  ILE A   1      -9.930  26.793  24.985  0.00  0.00    +0.380 N 
ATOM     28  HZ1 ILE A   1      -9.548  26.953  25.939  0.00  0.00    -0.089 HD
ATOM     29  HZ2 ILE A   1     -10.956  26.634  25.044  0.00  0.00    -0.089 HD
ATOM     30  HZ3 ILE A   1      -9.740  27.625  24.390  0.00  0.00    -0.089 HD
ENDBRANCH  26  27
ENDBRANCH  25  26
ENDBRANCH  24  25
ENDBRANCH  23  24
ENDBRANCH  20  23
ENDBRANCH  16  20
ENDBRANCH  15  18
BRANCH  15  31
ATOM     31  CB  VAL A   2      -5.624  18.877  20.559  0.00  0.00    +0.143 C 
BRANCH  31  32
ATOM     32  CG  VAL A   2      -4.258  18.206  20.659  0.00  0.00    +0.367 C 
ATOM     33  OD2 VAL A   2      -4.243  17.067  21.175  0.00  0.00    -0.246 OA
ATOM     34  OD1 VAL A   2      -3.236  18.741  20.219  0.00  0.00    -0.246 OA
ENDBRANCH  31  32
ENDBRANCH  15  31
ENDBRANCH  11  15
ENDBRANCH  10  12
BRANCH  10  35
ATOM     35  CB  SER A   3      -2.895  19.517  15.969  0.00  0.00    +0.166 C 
BRANCH  35  36
ATOM     36  OG  SER A   3      -1.971  18.896  16.800  0.00  0.00    -0.380 OA
ATOM     37  H   SER A   3      -2.050  19.266  17.715  0.00  0.00    +0.211 HD
ENDBRANCH  35  36
ENDBRANCH  10  35
ENDBRANCH   6  10
ENDBRANCH   5   8
BRANCH   5  38
ATOM     38  C   TRP A   4      -4.895  15.308  13.787  0.00  0.00    +0.242 C 
ATOM     39  N   GLN A   5      -5.419  14.096  13.469  0.00  0.00    -0.297 N 
ATOM     40  H   GLN A   5      -6.169  13.693  14.066  0.00  0.00    +0.150 HD
ATOM     41  O   TRP A   4      -4.262  15.984  13.004  0.00  0.00    -0.273 OA
BRANCH  39  42
ATOM     42  CA  GLN A   5      -4.957  13.356  12.320  0.00  0.00    +0.149 C 
BRANCH  42  43
ATOM     43  C   GLN A   5      -5.345  14.175  11.081  0.00  0.00    +0.241 C 
ATOM     44  O   GLN A   5      -6.475  14.666  10.979  0.00  0.00    -0.273 OA
ATOM     45  N   GLY A   6      -4.391  14.342  10.187  0.00  0.00    -0.295 N 
ATOM     46  H   GLY A   6      -3.465  13.890  10.329  0.00  0.00    +0.150 HD
BRANCH  45  47
ATOM     47  CA  GLY A   6      -4.630  15.170   8.980  0.00  0.00    +0.176 C 
BRANCH  47  48
ATOM     48  C   GLY A   6      -4.065  16.572   9.071  0.00  0.00    +0.243 C 
ATOM     49  N   ASP A   7      -3.742  17.011  10.295  0.00  0.00    -0.296 N 
ATOM     50  H   ASP A   7      -3.977  16.417  11.116  0.00  0.00    +0.150 HD
ATOM     51  O   GLY A   6      -3.887  17.243   8.045  0.00  0.00    -0.273 OA
BRANCH  49  52
ATOM     52  CA  ASP A   7      -3.082  18.274  10.522  0.00  0.00    +0.160 C 
BRANCH  52  53
ATOM     53  C   ASP A   7      -1.560  18.140  10.413  0.00  0.00    +0.241 C 
ATOM     54  N   SER A   8      -1.088  16.905  10.476  0.00  0.00    -0.295 N 
ATOM     55  H   SER A   8      -1.767  16.130  10.614  0.00  0.00    +0.150 HD
ATOM     56  O   ASP A   7      -0.860  19.172  10.308  0.00  0.00    -0.273 OA
BRANCH  54  57
ATOM     57  CA  SER A   8       0.319  16.565  10.364  0.00  0.00    +0.178 C 
BRANCH  57  58
ATOM     58  C   SER A   8       1.160  17.360   9.346  0.00  0.00    +0.243 C 
ATOM     59  N   GLY A   9       2.286  17.915   9.738  0.00  0.00    -0.295 N 
ATOM     60  H   GLY A   9       2.578  17.866  10.735  0.00  0.00    +0.150 HD
ATOM     61  O   SER A   8       0.733  17.505   8.218  0.00  0.00    -0.273 OA
BRANCH  59  62
ATOM     62  CA  GLY A   9       3.110  18.592   8.767  0.00  0.00    +0.176 C 
BRANCH  62  63
ATOM     63  C   GLY A   9       2.802  20.096   8.699  0.00  0.00    +0.243 C 
ATOM     64  N   GLY A  10       1.647  20.518   9.238  0.00  0.00    -0.296 N 
ATOM     65  H   GLY A  10       1.023  19.834   9.712  0.00  0.00    +0.150 HD
ATOM     66  O   GLY A   9       3.612  20.857   8.134  0.00  0.00    -0.273 OA
BRANCH  64  67
ATOM     67  CA  GLY A  10       1.245  21.955   9.167  0.00  0.00    +0.163 C 
BRANCH  67  68
ATOM     68  C   GLY A  10       1.922  22.814  10.204  0.00  0.00    +0.229 C 
ATOM     69  O   GLY A  10       2.714  22.371  11.044  0.00  0.00    -0.286 OA
ENDBRANCH  67  68
ENDBRANCH  64  67
ENDBRANCH  62  63
ENDBRANCH  59  62
ENDBRANCH  57  58
BRANCH  57  70
ATOM     70  CB  SER A   8       0.403  15.071  10.000  0.00  0.00    +0.166 C 
BRANCH  70  71
ATOM     71  OG  SER A   8       0.099  14.353  11.160  0.00  0.00    -0.380 OA
ATOM     72  H   SER A   8       0.142  13.383  10.967  0.00  0.00    +0.211 HD
ENDBRANCH  70  71
ENDBRANCH  57  70
ENDBRANCH  54  57
ENDBRANCH  52  53
BRANCH  52  73
ATOM     73  CB  ASP A   7      -3.417  18.849  11.901  0.00  0.00    +0.143 C 
BRANCH  73  74
ATOM     74  CG  ASP A   7      -4.870  19.296  12.041  0.00  0.00    +0.367 C 
ATOM     75  OD2 ASP A   7      -5.466  19.082  13.138  0.00  0.00    -0.246 OA
ATOM     76  OD1 ASP A   7      -5.408  19.863  11.066  0.00  0.00    -0.246 OA
ENDBRANCH  73  74
ENDBRANCH  52  73
ENDBRANCH  49  52
ENDBRANCH  47  48
ENDBRANCH  45  47
ENDBRANCH  42  43
BRANCH  42  77
ATOM     77  CB  GLN A   5      -5.693  11.981  12.320  0.00  0.00    +0.039 C 
BRANCH  77  78
ATOM     78  CG  GLN A   5      -5.230  10.952  11.264  0.00  0.00    +0.087 C 
BRANCH  78  79
ATOM     79  CD  GLN A   5      -5.386  11.323   9.802  0.00  0.00    +0.219 C 
ATOM     80  OE1 GLN A   5      -6.452  11.739   9.332  0.00  0.00    -0.275 OA
ATOM     81  NE2 GLN A   5      -4.323  11.159   9.030  0.00  0.00    -0.329 N 
ATOM     82 HE21 GLN A   5      -3.433  10.808   9.438  0.00  0.00    +0.145 HD
ATOM     83 HE22 GLN A   5      -4.378  11.381   8.015  0.00  0.00    +0.145 HD
ENDBRANCH  78  79
ENDBRANCH  77  78
ENDBRANCH  42  77
ENDBRANCH  39  42
ENDBRANCH   5  38
ENDBRANCH   4   5
ENDBRANCH   3   4
ENDBRANCH   2   3
ENDBRANCH   1   2
BRANCH   1  84
ATOM     84  CA  SER A   8      -6.414  14.335  20.149  0.00  0.00    +0.160 C 
BRANCH  84  85
ATOM     85  C   SER A   8      -7.259  14.895  21.189  0.00  0.00    +0.242 C 
ATOM     86  N   GLY A   9      -6.859  16.012  21.783  0.00  0.00    -0.297 N 
ATOM     87  H   GLY A   9      -5.899  16.355  21.578  0.00  0.00    +0.150 HD
ATOM     88  O   SER A   8      -8.374  14.351  21.490  0.00  0.00    -0.273 OA
BRANCH  86  89
ATOM     89  CA  GLY A   9      -7.668  16.781  22.694  0.00  0.00    +0.149 C 
ATOM     90  CB  GLY A   9      -8.918  17.344  22.081  0.00  0.00    +0.031 C 
BRANCH  89  91
ATOM     91  C   GLY A   9      -8.013  16.014  24.007  0.00  0.00    +0.241 C 
ATOM     92  O   GLY A   9      -8.950  16.375  24.722  0.00  0.00    -0.273 OA
ATOM     93  N   GLY A  10      -7.160  14.999  24.337  0.00  0.00    -0.298 N 
ATOM     94  H   GLY A  10      -6.364  14.747  23.717  0.00  0.00    +0.150 HD
BRANCH  93  95
ATOM     95  CA  GLY A  10      -7.404  14.261  25.614  0.00  0.00    +0.137 C 
BRANCH  95  96
ATOM     96  C   GLY A  10      -6.687  15.020  26.748  0.00  0.00    +0.227 C 
ATOM     97  O   GLY A  10      -5.625  15.641  26.585  0.00  0.00    -0.286 OA
ENDBRANCH  95  96
BRANCH  95  98
ATOM     98  CB  GLY A  10      -6.830  12.840  25.506  0.00  0.00    +0.037 C 
BRANCH  98  99
ATOM     99  CG  GLY A  10      -7.380  12.054  24.292  0.00  0.00    +0.087 C 
BRANCH  99 100
ATOM    100  CD  GLY A  10      -8.828  11.904  24.443  0.00  0.00    +0.219 C 
ATOM    101  OE1 GLY A  10      -9.295  11.253  25.450  0.00  0.00    -0.275 OA
ATOM    102  NE2 GLY A  10      -9.684  12.552  23.556  0.00  0.00    -0.329 N 
ATOM    103 HE21 GLY A  10     -10.713  12.513  23.704  0.00  0.00    +0.145 HD
ATOM    104 HE22 GLY A  10      -9.295  13.075  22.746  0.00  0.00    +0.145 HD
ENDBRANCH  99 100
ENDBRANCH  98  99
ENDBRANCH  95  98
ENDBRANCH  93  95
ENDBRANCH  89  91
ENDBRANCH  86  89
ENDBRANCH  84  85
BRANCH  84 105
ATOM    105  N   SER A   8      -6.248  12.851  20.398  0.00  0.00    -0.296 N 
ATOM    106  H   SER A   8      -7.076  12.296  20.696  0.00  0.00    +0.150 HD
ATOM    107  C   ASP A   7      -5.123  12.255  20.254  0.00  0.00    +0.243 C 
ATOM    108  O   ASP A   7      -4.083  12.816  19.931  0.00  0.00    -0.273 OA
BRANCH 107 109
ATOM    109  CA  ASP A   7      -5.132  10.740  20.481  0.00  0.00    +0.176 C 
BRANCH 109 110
ATOM    110  N   ASP A   7      -3.783  10.234  20.791  0.00  0.00    -0.295 N 
ATOM    111  C   GLY A   6      -3.078  10.630  21.754  0.00  0.00    +0.243 C 
ATOM    112  O   GLY A   6      -3.644  11.360  22.645  0.00  0.00    -0.273 OA
ATOM    113  H   ASP A   7      -3.387   9.499  20.171  0.00  0.00    +0.150 HD
BRANCH 111 114
ATOM    114  CA  GLY A   6      -1.591  10.247  21.863  0.00  0.00    +0.178 C 
BRANCH 114 115
ATOM    115  N   GLY A   6      -0.893  11.524  21.618  0.00  0.00    -0.295 N 
ATOM    116  H   GLY A   6      -0.722  12.200  22.389  0.00  0.00    +0.150 HD
ATOM    117  C   GLN A   5      -0.499  11.774  20.401  0.00  0.00    +0.243 C 
ATOM    118  O   GLN A   5      -0.716  11.007  19.490  0.00  0.00    -0.273 OA
BRANCH 117 119
ATOM    119  CA  GLN A   5       0.158  13.083  20.124  0.00  0.00    +0.176 C 
BRANCH 119 120
ATOM    120  N   GLN A   5       0.821  13.007  18.803  0.00  0.00    -0.295 N 
ATOM    121  C   TRP A   4       1.639  13.950  18.328  0.00  0.00    +0.241 C 
ATOM    122  O   TRP A   4       1.734  15.073  18.883  0.00  0.00    -0.273 OA
ATOM    123  H   GLN A   5       0.640  12.172  18.211  0.00  0.00    +0.150 HD
BRANCH 121 124
ATOM    124  CA  TRP A   4       2.304  13.646  17.033  0.00  0.00    +0.153 C 
BRANCH 124 125
ATOM    125  N   TRP A   4       2.968  14.879  16.505  0.00  0.00    -0.297 N 
ATOM    126  H   TRP A   4       3.151  15.695  17.123  0.00  0.00    +0.150 HD
ATOM    127  C   SER A   3       3.323  14.901  15.203  0.00  0.00    +0.243 C 
ATOM    128  O   SER A   3       2.973  13.971  14.410  0.00  0.00    -0.273 OA
BRANCH 127 129
ATOM    129  CA  SER A   3       4.075  16.049  14.609  0.00  0.00    +0.178 C 
BRANCH 129 130
ATOM    130  N   SER A   3       3.309  17.313  14.688  0.00  0.00    -0.295 N 
ATOM    131  H   SER A   3       3.001  17.670  15.615  0.00  0.00    +0.150 HD
ATOM    132  C   VAL A   2       3.002  18.016  13.558  0.00  0.00    +0.241 C 
ATOM    133  O   VAL A   2       3.237  17.554  12.418  0.00  0.00    -0.273 OA
BRANCH 132 134
ATOM    134  CA  VAL A   2       2.403  19.374  13.717  0.00  0.00    +0.148 C 
BRANCH 134 135
ATOM    135  N   VAL A   2       3.275  20.375  13.089  0.00  0.00    -0.297 N 
ATOM    136  C   ILE A   1       4.546  20.549  13.491  0.00  0.00    +0.238 C 
ATOM    137  O   ILE A   1       5.055  19.866  14.422  0.00  0.00    -0.274 OA
ATOM    138  H   VAL A   2       2.901  20.962  12.316  0.00  0.00    +0.150 HD
BRANCH 136 139
ATOM    139  CA  ILE A   1       5.389  21.575  12.746  0.00  0.00    +0.145 C 
BRANCH 139 140
ATOM    140  CB  ILE A   1       6.456  20.817  11.906  0.00  0.00    +0.025 C 
ATOM    141  CG2 ILE A   1       5.803  19.859  10.885  0.00  0.00    +0.002 C 
BRANCH 140 142
ATOM    142  CG1 ILE A   1       7.400  21.834  11.200  0.00  0.00    +0.002 C 
ATOM    143  CD1 ILE A   1       8.627  21.147  10.611  0.00  0.00    +0.000 C 
ENDBRANCH 140 142
ENDBRANCH 139 140
BRANCH 139 144
ATOM    144  N   ILE A   1       6.051  22.377  13.777  0.00  0.00    -0.238 NA
ATOM    145  H   ILE A   1       6.597  21.883  14.511  0.00  0.00    +0.142 HD
ENDBRANCH 139 144
ENDBRANCH 136 139
ENDBRANCH 134 135
BRANCH 134 146
ATOM    146  CB  VAL A   2       0.999  19.447  13.063  0.00  0.00    +0.027 C 
ATOM    147  CG2 VAL A   2       0.091  18.375  13.739  0.00  0.00    +0.002 C 
ATOM    148  CG1 VAL A   2       0.358  20.804  13.130  0.00  0.00    +0.002 C 
ENDBRANCH 134 146
ENDBRANCH 132 134
ENDBRANCH 129 130
BRANCH 129 149
ATOM    149  CB  SER A   3       5.457  16.247  15.314  0.00  0.00    +0.166 C 
BRANCH 149 150
ATOM    150  OG  SER A   3       6.266  15.086  15.195  0.00  0.00    -0.380 OA
ATOM    151  H   SER A   3       6.425  14.892  14.237  0.00  0.00    +0.211 HD
ENDBRANCH 149 150
ENDBRANCH 129 149
ENDBRANCH 127 129
ENDBRANCH 124 125
BRANCH 124 152
ATOM    152  CB  TRP A   4       3.341  12.481  17.186  0.00  0.00    +0.057 C 
BRANCH 152 153
ATOM    153  CG  TRP A   4       4.465  12.750  18.186  0.00  0.00    -0.002 A 
ATOM    154  CD2 TRP A   4       4.497  12.311  19.573  0.00  0.00    +0.013 A 
ATOM    155  CE3 TRP A   4       3.587  11.606  20.414  0.00  0.00    +0.001 A 
ATOM    156  CZ3 TRP A   4       4.000  11.357  21.739  0.00  0.00    +0.000 A 
ATOM    157  CH2 TRP A   4       5.214  11.774  22.223  0.00  0.00    +0.001 A 
ATOM    158  CZ2 TRP A   4       6.136  12.485  21.443  0.00  0.00    +0.017 A 
ATOM    159  CE2 TRP A   4       5.750  12.774  20.124  0.00  0.00    +0.056 A 
ATOM    160  NE1 TRP A   4       6.458  13.396  19.138  0.00  0.00    -0.352 N 
ATOM    161  HE1 TRP A   4       7.415  13.792  19.230  0.00  0.00    +0.166 HD
ATOM    162  CD1 TRP A   4       5.660  13.408  17.966  0.00  0.00    +0.068 A 
ENDBRANCH 152 153
ENDBRANCH 124 152
ENDBRANCH 121 124
ENDBRANCH 119 120
ENDBRANCH 117 119
ENDBRANCH 114 115
BRANCH 114 163
ATOM    163  CB  GLY A   6      -1.216   9.771  23.259  0.00  0.00    +0.166 C 
BRANCH 163 164
ATOM    164  O   GLY A   6      -2.104   8.725  23.612  0.00  0.00    -0.380 OA
ATOM    165  H   GLY A   6      -2.016   7.985  22.961  0.00  0.00    +0.211 HD
ENDBRANCH 163 164
ENDBRANCH 114 163
ENDBRANCH 111 114
ENDBRANCH 109 110
ENDBRANCH 107 109
ENDBRANCH  84 105
ENDBRANCH   1  84
TORSDOF 73
REMARK  Name = ../refined-set-2016/4abe/4abe_pocket.pdb
REMARK  133 active torsions:
REMARK  status: ('A' for Active; 'I' for Inactive)
REMARK    1  A    between atoms: _1  and  _5
REMARK    2  A    between atoms: _5  and  _6
REMARK    3  A    between atoms: _5  and  _8
REMARK    4  A    between atoms: _8  and  _9
REMARK    5  A    between atoms: _12  and  _14
REMARK    6  A    between atoms: _14  and  _15
REMARK    7  A    between atoms: _14  and  _17
REMARK    8  A    between atoms: _20  and  _22
REMARK    9  A    between atoms: _22  and  _23
REMARK   10  A    between atoms: _22  and  _25
REMARK   11  A    between atoms: _25  and  _26
REMARK   12  A    between atoms: _31  and  _33
REMARK   13  A    between atoms: _33  and  _34
REMARK   14  A    between atoms: _33  and  _36
REMARK   15  A    between atoms: _36  and  _37
REMARK   16  A    between atoms: _40  and  _42
REMARK   17  A    between atoms: _42  and  _43
REMARK   18  A    between atoms: _42  and  _45
REMARK   19  A    between atoms: _45  and  _46
REMARK   20  A    between atoms: _49  and  _51
REMARK   21  A    between atoms: _51  and  _52
REMARK   22  A    between atoms: _51  and  _54
REMARK   23  A    between atoms: _54  and  _55
REMARK   24  A    between atoms: _60  and  _62
REMARK   25  A    between atoms: _62  and  _63
REMARK   26  A    between atoms: _62  and  _65
REMARK   27  A    between atoms: _65  and  _66
REMARK   28  A    between atoms: _66  and  _67
REMARK   29  A    between atoms: _67  and  _68
REMARK   30  A    between atoms: _68  and  _69
REMARK   31  A    between atoms: _73  and  _75
REMARK   32  A    between atoms: _75  and  _76
REMARK   33  A    between atoms: _75  and  _78
REMARK   34  A    between atoms: _78  and  _79
REMARK   35  A    between atoms: _84  and  _85
REMARK   36  A    between atoms: _87  and  _89
REMARK   37  A    between atoms: _89  and  _90
REMARK   38  A    between atoms: _89  and  _92
REMARK   39  A    between atoms: _92  and  _93
REMARK   40  A    between atoms: _98  and  _99
REMARK   41  A    between atoms: _101  and  _103
REMARK   42  A    between atoms: _103  and  _104
REMARK   43  A    between atoms: _107  and  _109
REMARK   44  A    between atoms: _109  and  _110
REMARK   45  A    between atoms: _109  and  _112
REMARK   46  A    between atoms: _112  and  _113
REMARK   47  A    between atoms: _113  and  _114
REMARK   48  A    between atoms: _114  and  _115
REMARK   49  A    between atoms: _115  and  _116
REMARK   50  A    between atoms: _120  and  _122
REMARK   51  A    between atoms: _122  and  _123
REMARK   52  A    between atoms: _122  and  _125
REMARK   53  A    between atoms: _125  and  _126
REMARK   54  A    between atoms: _129  and  _131
REMARK   55  A    between atoms: _131  and  _132
REMARK   56  A    between atoms: _131  and  _134
REMARK   57  A    between atoms: _134  and  _135
REMARK   58  A    between atoms: _137  and  _139
REMARK   59  A    between atoms: _139  and  _140
REMARK   60  A    between atoms: _139  and  _142
REMARK   61  A    between atoms: _142  and  _143
REMARK   62  A    between atoms: _143  and  _253
REMARK   63  A    between atoms: _144  and  _146
REMARK   64  A    between atoms: _146  and  _147
REMARK   65  A    between atoms: _146  and  _149
REMARK   66  A    between atoms: _149  and  _150
REMARK   67  A    between atoms: _150  and  _151
REMARK   68  A    between atoms: _156  and  _158
REMARK   69  A    between atoms: _158  and  _159
REMARK   70  A    between atoms: _161  and  _163
REMARK   71  A    between atoms: _163  and  _164
REMARK   72  A    between atoms: _163  and  _166
REMARK   73  A    between atoms: _166  and  _167
REMARK   74  A    between atoms: _170  and  _172
REMARK   75  A    between atoms: _172  and  _173
REMARK   76  A    between atoms: _172  and  _175
REMARK   77  A    between atoms: _175  and  _176
REMARK   78  A    between atoms: _178  and  _180
REMARK   79  A    between atoms: _180  and  _181
REMARK   80  A    between atoms: _183  and  _185
REMARK   81  A    between atoms: _185  and  _186
REMARK   82  A    between atoms: _188  and  _190
REMARK   83  A    between atoms: _190  and  _191
REMARK   84  A    between atoms: _190  and  _193
REMARK   85  A    between atoms: _193  and  _194
REMARK   86  A    between atoms: _197  and  _199
REMARK   87  A    between atoms: _199  and  _200
REMARK   88  A    between atoms: _199  and  _202
REMARK   89  A    between atoms: _205  and  _207
REMARK   90  A    between atoms: _207  and  _208
REMARK   91  A    between atoms: _207  and  _210
REMARK   92  A    between atoms: _210  and  _211
REMARK   93  A    between atoms: _213  and  _215
REMARK   94  A    between atoms: _215  and  _216
REMARK   95  A    between atoms: _215  and  _218
REMARK   96  A    between atoms: _218  and  _219
REMARK   97  A    between atoms: _229  and  _231
REMARK   98  A    between atoms: _231  and  _232
REMARK   99  A    between atoms: _234  and  _236
REMARK  100  A    between atoms: _236  and  _237
REMARK  101  A    between atoms: _236  and  _239
REMARK  102  A    between atoms: _239  and  _240
REMARK  103  A    between atoms: _242  and  _244
REMARK  104  A    between atoms: _244  and  _245
REMARK  105  A    between atoms: _247  and  _249
REMARK  106  A    between atoms: _249  and  _250
REMARK  107  A    between atoms: _249  and  _252
REMARK  108  A    between atoms: _252  and  _253
REMARK  109  A    between atoms: _254  and  _256
REMARK  110  A    between atoms: _256  and  _257
REMARK  111  A    between atoms: _260  and  _262
REMARK  112  A    between atoms: _262  and  _263
REMARK  113  A    between atoms: _262  and  _265
REMARK  114  A    between atoms: _265  and  _266
REMARK  115  A    between atoms: _266  and  _267
REMARK  116  A    between atoms: _272  and  _274
REMARK  117  A    between atoms: _274  and  _275
REMARK  118  A    between atoms: _274  and  _277
REMARK  119  A    between atoms: _277  and  _278
REMARK  120  A    between atoms: _278  and  _279
REMARK  121  A    between atoms: _279  and  _280
REMARK  122  A    between atoms: _280  and  _281
REMARK  123  A    between atoms: _286  and  _287
REMARK  124  A    between atoms: _292  and  _294
REMARK  125  A    between atoms: _294  and  _295
REMARK  126  A    between atoms: _297  and  _299
REMARK  127  A    between atoms: _299  and  _300
REMARK  128  A    between atoms: _299  and  _302
REMARK  129  A    between atoms: _305  and  _307
REMARK  130  A    between atoms: _307  and  _308
REMARK  131  A    between atoms: _307  and  _310
REMARK  132  A    between atoms: _310  and  _311
REMARK  133  A    between atoms: _316  and  _317
REMARK                            x       y       z     vdW  Elec       q    Type
REMARK                         _______ _______ _______ _____ _____    ______ ____
ROOT
ATOM      1  C   GLY A   3       1.504  18.218  21.097  0.00  0.00    +0.243 C 
ATOM      2  O   GLY A   3       1.972  19.077  21.862  0.00  0.00    -0.273 OA
ATOM      3  N   VAL A   4       2.265  17.448  20.293  0.00  0.00    -0.297 N 
ATOM      4  H   VAL A   4       1.784  16.769  19.669  0.00  0.00    +0.150 HD
ENDROOT
BRANCH   1   5
ATOM      5  CA  GLY A   3       0.038  17.999  20.909  0.00  0.00    +0.176 C 
BRANCH   5   8
ATOM      6  C   PRO A   2      -0.538  17.432  23.184  0.00  0.00    +0.241 C 
ATOM      7  O   PRO A   2       0.187  16.474  23.164  0.00  0.00    -0.273 OA
ATOM      8  N   GLY A   3      -0.704  18.236  22.144  0.00  0.00    -0.295 N 
ATOM      9  H   GLY A   3      -1.364  19.037  22.207  0.00  0.00    +0.150 HD
BRANCH   6  15
ATOM     10  C   LYS A   1      -2.030  15.684  25.258  0.00  0.00    +0.241 C 
ATOM     11  N   PRO A   2      -1.247  16.739  25.448  0.00  0.00    -0.272 N 
ATOM     12  CD  PRO A   2      -0.337  17.000  26.586  0.00  0.00    +0.094 C 
ATOM     13  CG  PRO A   2       0.462  18.226  26.130  0.00  0.00    +0.024 C 
ATOM     14  CB  PRO A   2      -0.472  18.977  25.220  0.00  0.00    +0.031 C 
ATOM     15  CA  PRO A   2      -1.257  17.859  24.453  0.00  0.00    +0.152 C 
ATOM     16  O   LYS A   1      -2.746  15.620  24.249  0.00  0.00    -0.273 OA
BRANCH  10  17
ATOM     17  CA  LYS A   1      -2.009  14.590  26.295  0.00  0.00    +0.145 C 
BRANCH  17  18
ATOM     18  N   LYS A   1      -2.673  15.082  27.536  0.00  0.00    -0.238 NA
ATOM     19  H   LYS A   1      -3.604  15.540  27.470  0.00  0.00    +0.142 HD
ENDBRANCH  17  18
BRANCH  17  20
ATOM     20  CB  LYS A   1      -2.614  13.319  25.778  0.00  0.00    +0.026 C 
BRANCH  20  21
ATOM     21  CG  LYS A   1      -2.450  12.136  26.792  0.00  0.00    -0.000 C 
BRANCH  21  22
ATOM     22  CD  LYS A   1      -0.996  11.764  26.895  0.00  0.00    -0.024 C 
BRANCH  22  23
ATOM     23  CE  LYS A   1      -0.806  10.636  27.914  0.00  0.00    -0.086 C 
BRANCH  23  24
ATOM     24  NZ  LYS A   1       0.625  10.168  27.945  0.00  0.00    +0.380 N 
ATOM     25  HZ1 LYS A   1       0.724   9.404  28.644  0.00  0.00    -0.089 HD
ATOM     26  HZ2 LYS A   1       1.243  10.962  28.208  0.00  0.00    -0.089 HD
ATOM     27  HZ3 LYS A   1       0.894   9.816  27.004  0.00  0.00    -0.089 HD
ENDBRANCH  23  24
ENDBRANCH  22  23
ENDBRANCH  21  22
ENDBRANCH  20  21
ENDBRANCH  17  20
ENDBRANCH  10  17
ENDBRANCH   6  15
ENDBRANCH   5   8
ENDBRANCH   1   5
BRANCH   3  28
ATOM     28  CA  VAL A   4       3.743  17.510  20.244  0.00  0.00    +0.149 C 
BRANCH  28  29
ATOM     29  C   VAL A   4       4.180  17.969  18.852  0.00  0.00    +0.241 C 
ATOM     30  N   TYR A   5       5.101  18.901  18.814  0.00  0.00    -0.298 N 
ATOM     31  H   TYR A   5       5.605  19.115  19.698  0.00  0.00    +0.150 HD
ATOM     32  O   VAL A   4       3.574  17.518  17.815  0.00  0.00    -0.273 OA
BRANCH  30  33
ATOM     33  CA  TYR A   5       5.479  19.673  17.608  0.00  0.00    +0.141 C 
BRANCH  33  34
ATOM     34  C   TYR A   5       6.970  19.655  17.406  0.00  0.00    +0.227 C 
ATOM     35  O   TYR A   5       7.781  19.694  18.382  0.00  0.00    -0.286 OA
ENDBRANCH  33  34
BRANCH  33  36
ATOM     36  CB  TYR A   5       4.978  21.171  17.799  0.00  0.00    +0.054 C 
BRANCH  36  37
ATOM     37  CG  TYR A   5       3.479  21.160  17.966  0.00  0.00    -0.020 A 
ATOM     38  CD2 TYR A   5       2.821  21.122  19.174  0.00  0.00    -0.001 A 
ATOM     39  CE2 TYR A   5       1.463  21.042  19.290  0.00  0.00    +0.036 A 
ATOM     40  CZ  TYR A   5       0.700  21.026  18.133  0.00  0.00    +0.134 A 
ATOM     41  CE1 TYR A   5       1.313  21.090  16.911  0.00  0.00    +0.036 A 
ATOM     42  CD1 TYR A   5       2.708  21.116  16.839  0.00  0.00    -0.001 A 
BRANCH  40  43
ATOM     43  OH  TYR A   5      -0.698  20.973  18.229  0.00  0.00    -0.506 OA
ATOM     44  HH  TYR A   5      -1.024  21.765  18.726  0.00  0.00    +0.292 HD
ENDBRANCH  40  43
ENDBRANCH  36  37
ENDBRANCH  33  36
ENDBRANCH  30  33
ENDBRANCH  28  29
BRANCH  28  45
ATOM     45  CB  VAL A   4       4.434  16.163  20.620  0.00  0.00    +0.027 C 
ATOM     46  CG2 VAL A   4       3.796  15.617  21.912  0.00  0.00    +0.002 C 
ATOM     47  CG1 VAL A   4       5.921  16.370  20.797  0.00  0.00    +0.002 C 
ENDBRANCH  28  45
ENDBRANCH   3  28
TORSDOF 18
REMARK  Name = ../refined-set-2016/4abe/4abe_pocket.pdb
REMARK  133 active torsions:
REMARK  status: ('A' for Active; 'I' for Inactive)
REMARK    1  A    between atoms: _1  and  _5
REMARK    2  A    between atoms: _5  and  _6
REMARK    3  A    between atoms: _5  and  _8
REMARK    4  A    between atoms: _8  and  _9
REMARK    5  A    between atoms: _12  and  _14
REMARK    6  A    between atoms: _14  and  _15
REMARK    7  A    between atoms: _14  and  _17
REMARK    8  A    between atoms: _20  and  _22
REMARK    9  A    between atoms: _22  and  _23
REMARK   10  A    between atoms: _22  and  _25
REMARK   11  A    between atoms: _25  and  _26
REMARK   12  A    between atoms: _31  and  _33
REMARK   13  A    between atoms: _33  and  _34
REMARK   14  A    between atoms: _33  and  _36
REMARK   15  A    between atoms: _36  and  _37
REMARK   16  A    between atoms: _40  and  _42
REMARK   17  A    between atoms: _42  and  _43
REMARK   18  A    between atoms: _42  and  _45
REMARK   19  A    between atoms: _45  and  _46
REMARK   20  A    between atoms: _49  and  _51
REMARK   21  A    between atoms: _51  and  _52
REMARK   22  A    between atoms: _51  and  _54
REMARK   23  A    between atoms: _54  and  _55
REMARK   24  A    between atoms: _60  and  _62
REMARK   25  A    between atoms: _62  and  _63
REMARK   26  A    between atoms: _62  and  _65
REMARK   27  A    between atoms: _65  and  _66
REMARK   28  A    between atoms: _66  and  _67
REMARK   29  A    between atoms: _67  and  _68
REMARK   30  A    between atoms: _68  and  _69
REMARK   31  A    between atoms: _73  and  _75
REMARK   32  A    between atoms: _75  and  _76
REMARK   33  A    between atoms: _75  and  _78
REMARK   34  A    between atoms: _78  and  _79
REMARK   35  A    between atoms: _84  and  _85
REMARK   36  A    between atoms: _87  and  _89
REMARK   37  A    between atoms: _89  and  _90
REMARK   38  A    between atoms: _89  and  _92
REMARK   39  A    between atoms: _92  and  _93
REMARK   40  A    between atoms: _98  and  _99
REMARK   41  A    between atoms: _101  and  _103
REMARK   42  A    between atoms: _103  and  _104
REMARK   43  A    between atoms: _107  and  _109
REMARK   44  A    between atoms: _109  and  _110
REMARK   45  A    between atoms: _109  and  _112
REMARK   46  A    between atoms: _112  and  _113
REMARK   47  A    between atoms: _113  and  _114
REMARK   48  A    between atoms: _114  and  _115
REMARK   49  A    between atoms: _115  and  _116
REMARK   50  A    between atoms: _120  and  _122
REMARK   51  A    between atoms: _122  and  _123
REMARK   52  A    between atoms: _122  and  _125
REMARK   53  A    between atoms: _125  and  _126
REMARK   54  A    between atoms: _129  and  _131
REMARK   55  A    between atoms: _131  and  _132
REMARK   56  A    between atoms: _131  and  _134
REMARK   57  A    between atoms: _134  and  _135
REMARK   58  A    between atoms: _137  and  _139
REMARK   59  A    between atoms: _139  and  _140
REMARK   60  A    between atoms: _139  and  _142
REMARK   61  A    between atoms: _142  and  _143
REMARK   62  A    between atoms: _143  and  _253
REMARK   63  A    between atoms: _144  and  _146
REMARK   64  A    between atoms: _146  and  _147
REMARK   65  A    between atoms: _146  and  _149
REMARK   66  A    between atoms: _149  and  _150
REMARK   67  A    between atoms: _150  and  _151
REMARK   68  A    between atoms: _156  and  _158
REMARK   69  A    between atoms: _158  and  _159
REMARK   70  A    between atoms: _161  and  _163
REMARK   71  A    between atoms: _163  and  _164
REMARK   72  A    between atoms: _163  and  _166
REMARK   73  A    between atoms: _166  and  _167
REMARK   74  A    between atoms: _170  and  _172
REMARK   75  A    between atoms: _172  and  _173
REMARK   76  A    between atoms: _172  and  _175
REMARK   77  A    between atoms: _175  and  _176
REMARK   78  A    between atoms: _178  and  _180
REMARK   79  A    between atoms: _180  and  _181
REMARK   80  A    between atoms: _183  and  _185
REMARK   81  A    between atoms: _185  and  _186
REMARK   82  A    between atoms: _188  and  _190
REMARK   83  A    between atoms: _190  and  _191
REMARK   84  A    between atoms: _190  and  _193
REMARK   85  A    between atoms: _193  and  _194
REMARK   86  A    between atoms: _197  and  _199
REMARK   87  A    between atoms: _199  and  _200
REMARK   88  A    between atoms: _199  and  _202
REMARK   89  A    between atoms: _205  and  _207
REMARK   90  A    between atoms: _207  and  _208
REMARK   91  A    between atoms: _207  and  _210
REMARK   92  A    between atoms: _210  and  _211
REMARK   93  A    between atoms: _213  and  _215
REMARK   94  A    between atoms: _215  and  _216
REMARK   95  A    between atoms: _215  and  _218
REMARK   96  A    between atoms: _218  and  _219
REMARK   97  A    between atoms: _229  and  _231
REMARK   98  A    between atoms: _231  and  _232
REMARK   99  A    between atoms: _234  and  _236
REMARK  100  A    between atoms: _236  and  _237
REMARK  101  A    between atoms: _236  and  _239
REMARK  102  A    between atoms: _239  and  _240
REMARK  103  A    between atoms: _242  and  _244
REMARK  104  A    between atoms: _244  and  _245
REMARK  105  A    between atoms: _247  and  _249
REMARK  106  A    between atoms: _249  and  _250
REMARK  107  A    between atoms: _249  and  _252
REMARK  108  A    between atoms: _252  and  _253
REMARK  109  A    between atoms: _254  and  _256
REMARK  110  A    between atoms: _256  and  _257
REMARK  111  A    between atoms: _260  and  _262
REMARK  112  A    between atoms: _262  and  _263
REMARK  113  A    between atoms: _262  and  _265
REMARK  114  A    between atoms: _265  and  _266
REMARK  115  A    between atoms: _266  and  _267
REMARK  116  A    between atoms: _272  and  _274
REMARK  117  A    between atoms: _274  and  _275
REMARK  118  A    between atoms: _274  and  _277
REMARK  119  A    between atoms: _277  and  _278
REMARK  120  A    between atoms: _278  and  _279
REMARK  121  A    between atoms: _279  and  _280
REMARK  122  A    between atoms: _280  and  _281
REMARK  123  A    between atoms: _286  and  _287
REMARK  124  A    between atoms: _292  and  _294
REMARK  125  A    between atoms: _294  and  _295
REMARK  126  A    between atoms: _297  and  _299
REMARK  127  A    between atoms: _299  and  _300
REMARK  128  A    between atoms: _299  and  _302
REMARK  129  A    between atoms: _305  and  _307
REMARK  130  A    between atoms: _307  and  _308
REMARK  131  A    between atoms: _307  and  _310
REMARK  132  A    between atoms: _310  and  _311
REMARK  133  A    between atoms: _316  and  _317
REMARK                            x       y       z     vdW  Elec       q    Type
REMARK                         _______ _______ _______ _____ _____    ______ ____
ROOT
ATOM      1  O   HOH     1      -1.873  14.279   8.648  0.00  0.00    +0.000 OA
ENDROOT
TORSDOF 0
REMARK  Name = ../refined-set-2016/4abe/4abe_pocket.pdb
REMARK  133 active torsions:
REMARK  status: ('A' for Active; 'I' for Inactive)
REMARK    1  A    between atoms: _1  and  _5
REMARK    2  A    between atoms: _5  and  _6
REMARK    3  A    between atoms: _5  and  _8
REMARK    4  A    between atoms: _8  and  _9
REMARK    5  A    between atoms: _12  and  _14
REMARK    6  A    between atoms: _14  and  _15
REMARK    7  A    between atoms: _14  and  _17
REMARK    8  A    between atoms: _20  and  _22
REMARK    9  A    between atoms: _22  and  _23
REMARK   10  A    between atoms: _22  and  _25
REMARK   11  A    between atoms: _25  and  _26
REMARK   12  A    between atoms: _31  and  _33
REMARK   13  A    between atoms: _33  and  _34
REMARK   14  A    between atoms: _33  and  _36
REMARK   15  A    between atoms: _36  and  _37
REMARK   16  A    between atoms: _40  and  _42
REMARK   17  A    between atoms: _42  and  _43
REMARK   18  A    between atoms: _42  and  _45
REMARK   19  A    between atoms: _45  and  _46
REMARK   20  A    between atoms: _49  and  _51
REMARK   21  A    between atoms: _51  and  _52
REMARK   22  A    between atoms: _51  and  _54
REMARK   23  A    between atoms: _54  and  _55
REMARK   24  A    between atoms: _60  and  _62
REMARK   25  A    between atoms: _62  and  _63
REMARK   26  A    between atoms: _62  and  _65
REMARK   27  A    between atoms: _65  and  _66
REMARK   28  A    between atoms: _66  and  _67
REMARK   29  A    between atoms: _67  and  _68
REMARK   30  A    between atoms: _68  and  _69
REMARK   31  A    between atoms: _73  and  _75
REMARK   32  A    between atoms: _75  and  _76
REMARK   33  A    between atoms: _75  and  _78
REMARK   34  A    between atoms: _78  and  _79
REMARK   35  A    between atoms: _84  and  _85
REMARK   36  A    between atoms: _87  and  _89
REMARK   37  A    between atoms: _89  and  _90
REMARK   38  A    between atoms: _89  and  _92
REMARK   39  A    between atoms: _92  and  _93
REMARK   40  A    between atoms: _98  and  _99
REMARK   41  A    between atoms: _101  and  _103
REMARK   42  A    between atoms: _103  and  _104
REMARK   43  A    between atoms: _107  and  _109
REMARK   44  A    between atoms: _109  and  _110
REMARK   45  A    between atoms: _109  and  _112
REMARK   46  A    between atoms: _112  and  _113
REMARK   47  A    between atoms: _113  and  _114
REMARK   48  A    between atoms: _114  and  _115
REMARK   49  A    between atoms: _115  and  _116
REMARK   50  A    between atoms: _120  and  _122
REMARK   51  A    between atoms: _122  and  _123
REMARK   52  A    between atoms: _122  and  _125
REMARK   53  A    between atoms: _125  and  _126
REMARK   54  A    between atoms: _129  and  _131
REMARK   55  A    between atoms: _131  and  _132
REMARK   56  A    between atoms: _131  and  _134
REMARK   57  A    between atoms: _134  and  _135
REMARK   58  A    between atoms: _137  and  _139
REMARK   59  A    between atoms: _139  and  _140
REMARK   60  A    between atoms: _139  and  _142
REMARK   61  A    between atoms: _142  and  _143
REMARK   62  A    between atoms: _143  and  _253
REMARK   63  A    between atoms: _144  and  _146
REMARK   64  A    between atoms: _146  and  _147
REMARK   65  A    between atoms: _146  and  _149
REMARK   66  A    between atoms: _149  and  _150
REMARK   67  A    between atoms: _150  and  _151
REMARK   68  A    between atoms: _156  and  _158
REMARK   69  A    between atoms: _158  and  _159
REMARK   70  A    between atoms: _161  and  _163
REMARK   71  A    between atoms: _163  and  _164
REMARK   72  A    between atoms: _163  and  _166
REMARK   73  A    between atoms: _166  and  _167
REMARK   74  A    between atoms: _170  and  _172
REMARK   75  A    between atoms: _172  and  _173
REMARK   76  A    between atoms: _172  and  _175
REMARK   77  A    between atoms: _175  and  _176
REMARK   78  A    between atoms: _178  and  _180
REMARK   79  A    between atoms: _180  and  _181
REMARK   80  A    between atoms: _183  and  _185
REMARK   81  A    between atoms: _185  and  _186
REMARK   82  A    between atoms: _188  and  _190
REMARK   83  A    between atoms: _190  and  _191
REMARK   84  A    between atoms: _190  and  _193
REMARK   85  A    between atoms: _193  and  _194
REMARK   86  A    between atoms: _197  and  _199
REMARK   87  A    between atoms: _199  and  _200
REMARK   88  A    between atoms: _199  and  _202
REMARK   89  A    between atoms: _205  and  _207
REMARK   90  A    between atoms: _207  and  _208
REMARK   91  A    between atoms: _207  and  _210
REMARK   92  A    between atoms: _210  and  _211
REMARK   93  A    between atoms: _213  and  _215
REMARK   94  A    between atoms: _215  and  _216
REMARK   95  A    between atoms: _215  and  _218
REMARK   96  A    between atoms: _218  and  _219
REMARK   97  A    between atoms: _229  and  _231
REMARK   98  A    between atoms: _231  and  _232
REMARK   99  A    between atoms: _234  and  _236
REMARK  100  A    between atoms: _236  and  _237
REMARK  101  A    between atoms: _236  and  _239
REMARK  102  A    between atoms: _239  and  _240
REMARK  103  A    between atoms: _242  and  _244
REMARK  104  A    between atoms: _244  and  _245
REMARK  105  A    between atoms: _247  and  _249
REMARK  106  A    between atoms: _249  and  _250
REMARK  107  A    between atoms: _249  and  _252
REMARK  108  A    between atoms: _252  and  _253
REMARK  109  A    between atoms: _254  and  _256
REMARK  110  A    between atoms: _256  and  _257
REMARK  111  A    between atoms: _260  and  _262
REMARK  112  A    between atoms: _262  and  _263
REMARK  113  A    between atoms: _262  and  _265
REMARK  114  A    between atoms: _265  and  _266
REMARK  115  A    between atoms: _266  and  _267
REMARK  116  A    between atoms: _272  and  _274
REMARK  117  A    between atoms: _274  and  _275
REMARK  118  A    between atoms: _274  and  _277
REMARK  119  A    between atoms: _277  and  _278
REMARK  120  A    between atoms: _278  and  _279
REMARK  121  A    between atoms: _279  and  _280
REMARK  122  A    between atoms: _280  and  _281
REMARK  123  A    between atoms: _286  and  _287
REMARK  124  A    between atoms: _292  and  _294
REMARK  125  A    between atoms: _294  and  _295
REMARK  126  A    between atoms: _297  and  _299
REMARK  127  A    between atoms: _299  and  _300
REMARK  128  A    between atoms: _299  and  _302
REMARK  129  A    between atoms: _305  and  _307
REMARK  130  A    between atoms: _307  and  _308
REMARK  131  A    between atoms: _307  and  _310
REMARK  132  A    between atoms: _310  and  _311
REMARK  133  A    between atoms: _316  and  _317
REMARK                            x       y       z     vdW  Elec       q    Type
REMARK                         _______ _______ _______ _____ _____    ______ ____
ROOT
ATOM      1  O   HOH     1      -8.540  11.014  20.436  0.00  0.00    +0.000 OA
ENDROOT
TORSDOF 0
REMARK  Name = ../refined-set-2016/4abe/4abe_pocket.pdb
REMARK  133 active torsions:
REMARK  status: ('A' for Active; 'I' for Inactive)
REMARK    1  A    between atoms: _1  and  _5
REMARK    2  A    between atoms: _5  and  _6
REMARK    3  A    between atoms: _5  and  _8
REMARK    4  A    between atoms: _8  and  _9
REMARK    5  A    between atoms: _12  and  _14
REMARK    6  A    between atoms: _14  and  _15
REMARK    7  A    between atoms: _14  and  _17
REMARK    8  A    between atoms: _20  and  _22
REMARK    9  A    between atoms: _22  and  _23
REMARK   10  A    between atoms: _22  and  _25
REMARK   11  A    between atoms: _25  and  _26
REMARK   12  A    between atoms: _31  and  _33
REMARK   13  A    between atoms: _33  and  _34
REMARK   14  A    between atoms: _33  and  _36
REMARK   15  A    between atoms: _36  and  _37
REMARK   16  A    between atoms: _40  and  _42
REMARK   17  A    between atoms: _42  and  _43
REMARK   18  A    between atoms: _42  and  _45
REMARK   19  A    between atoms: _45  and  _46
REMARK   20  A    between atoms: _49  and  _51
REMARK   21  A    between atoms: _51  and  _52
REMARK   22  A    between atoms: _51  and  _54
REMARK   23  A    between atoms: _54  and  _55
REMARK   24  A    between atoms: _60  and  _62
REMARK   25  A    between atoms: _62  and  _63
REMARK   26  A    between atoms: _62  and  _65
REMARK   27  A    between atoms: _65  and  _66
REMARK   28  A    between atoms: _66  and  _67
REMARK   29  A    between atoms: _67  and  _68
REMARK   30  A    between atoms: _68  and  _69
REMARK   31  A    between atoms: _73  and  _75
REMARK   32  A    between atoms: _75  and  _76
REMARK   33  A    between atoms: _75  and  _78
REMARK   34  A    between atoms: _78  and  _79
REMARK   35  A    between atoms: _84  and  _85
REMARK   36  A    between atoms: _87  and  _89
REMARK   37  A    between atoms: _89  and  _90
REMARK   38  A    between atoms: _89  and  _92
REMARK   39  A    between atoms: _92  and  _93
REMARK   40  A    between atoms: _98  and  _99
REMARK   41  A    between atoms: _101  and  _103
REMARK   42  A    between atoms: _103  and  _104
REMARK   43  A    between atoms: _107  and  _109
REMARK   44  A    between atoms: _109  and  _110
REMARK   45  A    between atoms: _109  and  _112
REMARK   46  A    between atoms: _112  and  _113
REMARK   47  A    between atoms: _113  and  _114
REMARK   48  A    between atoms: _114  and  _115
REMARK   49  A    between atoms: _115  and  _116
REMARK   50  A    between atoms: _120  and  _122
REMARK   51  A    between atoms: _122  and  _123
REMARK   52  A    between atoms: _122  and  _125
REMARK   53  A    between atoms: _125  and  _126
REMARK   54  A    between atoms: _129  and  _131
REMARK   55  A    between atoms: _131  and  _132
REMARK   56  A    between atoms: _131  and  _134
REMARK   57  A    between atoms: _134  and  _135
REMARK   58  A    between atoms: _137  and  _139
REMARK   59  A    between atoms: _139  and  _140
REMARK   60  A    between atoms: _139  and  _142
REMARK   61  A    between atoms: _142  and  _143
REMARK   62  A    between atoms: _143  and  _253
REMARK   63  A    between atoms: _144  and  _146
REMARK   64  A    between atoms: _146  and  _147
REMARK   65  A    between atoms: _146  and  _149
REMARK   66  A    between atoms: _149  and  _150
REMARK   67  A    between atoms: _150  and  _151
REMARK   68  A    between atoms: _156  and  _158
REMARK   69  A    between atoms: _158  and  _159
REMARK   70  A    between atoms: _161  and  _163
REMARK   71  A    between atoms: _163  and  _164
REMARK   72  A    between atoms: _163  and  _166
REMARK   73  A    between atoms: _166  and  _167
REMARK   74  A    between atoms: _170  and  _172
REMARK   75  A    between atoms: _172  and  _173
REMARK   76  A    between atoms: _172  and  _175
REMARK   77  A    between atoms: _175  and  _176
REMARK   78  A    between atoms: _178  and  _180
REMARK   79  A    between atoms: _180  and  _181
REMARK   80  A    between atoms: _183  and  _185
REMARK   81  A    between atoms: _185  and  _186
REMARK   82  A    between atoms: _188  and  _190
REMARK   83  A    between atoms: _190  and  _191
REMARK   84  A    between atoms: _190  and  _193
REMARK   85  A    between atoms: _193  and  _194
REMARK   86  A    between atoms: _197  and  _199
REMARK   87  A    between atoms: _199  and  _200
REMARK   88  A    between atoms: _199  and  _202
REMARK   89  A    between atoms: _205  and  _207
REMARK   90  A    between atoms: _207  and  _208
REMARK   91  A    between atoms: _207  and  _210
REMARK   92  A    between atoms: _210  and  _211
REMARK   93  A    between atoms: _213  and  _215
REMARK   94  A    between atoms: _215  and  _216
REMARK   95  A    between atoms: _215  and  _218
REMARK   96  A    between atoms: _218  and  _219
REMARK   97  A    between atoms: _229  and  _231
REMARK   98  A    between atoms: _231  and  _232
REMARK   99  A    between atoms: _234  and  _236
REMARK  100  A    between atoms: _236  and  _237
REMARK  101  A    between atoms: _236  and  _239
REMARK  102  A    between atoms: _239  and  _240
REMARK  103  A    between atoms: _242  and  _244
REMARK  104  A    between atoms: _244  and  _245
REMARK  105  A    between atoms: _247  and  _249
REMARK  106  A    between atoms: _249  and  _250
REMARK  107  A    between atoms: _249  and  _252
REMARK  108  A    between atoms: _252  and  _253
REMARK  109  A    between atoms: _254  and  _256
REMARK  110  A    between atoms: _256  and  _257
REMARK  111  A    between atoms: _260  and  _262
REMARK  112  A    between atoms: _262  and  _263
REMARK  113  A    between atoms: _262  and  _265
REMARK  114  A    between atoms: _265  and  _266
REMARK  115  A    between atoms: _266  and  _267
REMARK  116  A    between atoms: _272  and  _274
REMARK  117  A    between atoms: _274  and  _275
REMARK  118  A    between atoms: _274  and  _277
REMARK  119  A    between atoms: _277  and  _278
REMARK  120  A    between atoms: _278  and  _279
REMARK  121  A    between atoms: _279  and  _280
REMARK  122  A    between atoms: _280  and  _281
REMARK  123  A    between atoms: _286  and  _287
REMARK  124  A    between atoms: _292  and  _294
REMARK  125  A    between atoms: _294  and  _295
REMARK  126  A    between atoms: _297  and  _299
REMARK  127  A    between atoms: _299  and  _300
REMARK  128  A    between atoms: _299  and  _302
REMARK  129  A    between atoms: _305  and  _307
REMARK  130  A    between atoms: _307  and  _308
REMARK  131  A    between atoms: _307  and  _310
REMARK  132  A    between atoms: _310  and  _311
REMARK  133  A    between atoms: _316  and  _317
REMARK                            x       y       z     vdW  Elec       q    Type
REMARK                         _______ _______ _______ _____ _____    ______ ____
ROOT
ATOM      1  O   HOH     1      -9.337   8.948   9.398  0.00  0.00    +0.000 OA
ENDROOT
TORSDOF 0
REMARK  Name = ../refined-set-2016/4abe/4abe_pocket.pdb
REMARK  133 active torsions:
REMARK  status: ('A' for Active; 'I' for Inactive)
REMARK    1  A    between atoms: _1  and  _5
REMARK    2  A    between atoms: _5  and  _6
REMARK    3  A    between atoms: _5  and  _8
REMARK    4  A    between atoms: _8  and  _9
REMARK    5  A    between atoms: _12  and  _14
REMARK    6  A    between atoms: _14  and  _15
REMARK    7  A    between atoms: _14  and  _17
REMARK    8  A    between atoms: _20  and  _22
REMARK    9  A    between atoms: _22  and  _23
REMARK   10  A    between atoms: _22  and  _25
REMARK   11  A    between atoms: _25  and  _26
REMARK   12  A    between atoms: _31  and  _33
REMARK   13  A    between atoms: _33  and  _34
REMARK   14  A    between atoms: _33  and  _36
REMARK   15  A    between atoms: _36  and  _37
REMARK   16  A    between atoms: _40  and  _42
REMARK   17  A    between atoms: _42  and  _43
REMARK   18  A    between atoms: _42  and  _45
REMARK   19  A    between atoms: _45  and  _46
REMARK   20  A    between atoms: _49  and  _51
REMARK   21  A    between atoms: _51  and  _52
REMARK   22  A    between atoms: _51  and  _54
REMARK   23  A    between atoms: _54  and  _55
REMARK   24  A    between atoms: _60  and  _62
REMARK   25  A    between atoms: _62  and  _63
REMARK   26  A    between atoms: _62  and  _65
REMARK   27  A    between atoms: _65  and  _66
REMARK   28  A    between atoms: _66  and  _67
REMARK   29  A    between atoms: _67  and  _68
REMARK   30  A    between atoms: _68  and  _69
REMARK   31  A    between atoms: _73  and  _75
REMARK   32  A    between atoms: _75  and  _76
REMARK   33  A    between atoms: _75  and  _78
REMARK   34  A    between atoms: _78  and  _79
REMARK   35  A    between atoms: _84  and  _85
REMARK   36  A    between atoms: _87  and  _89
REMARK   37  A    between atoms: _89  and  _90
REMARK   38  A    between atoms: _89  and  _92
REMARK   39  A    between atoms: _92  and  _93
REMARK   40  A    between atoms: _98  and  _99
REMARK   41  A    between atoms: _101  and  _103
REMARK   42  A    between atoms: _103  and  _104
REMARK   43  A    between atoms: _107  and  _109
REMARK   44  A    between atoms: _109  and  _110
REMARK   45  A    between atoms: _109  and  _112
REMARK   46  A    between atoms: _112  and  _113
REMARK   47  A    between atoms: _113  and  _114
REMARK   48  A    between atoms: _114  and  _115
REMARK   49  A    between atoms: _115  and  _116
REMARK   50  A    between atoms: _120  and  _122
REMARK   51  A    between atoms: _122  and  _123
REMARK   52  A    between atoms: _122  and  _125
REMARK   53  A    between atoms: _125  and  _126
REMARK   54  A    between atoms: _129  and  _131
REMARK   55  A    between atoms: _131  and  _132
REMARK   56  A    between atoms: _131  and  _134
REMARK   57  A    between atoms: _134  and  _135
REMARK   58  A    between atoms: _137  and  _139
REMARK   59  A    between atoms: _139  and  _140
REMARK   60  A    between atoms: _139  and  _142
REMARK   61  A    between atoms: _142  and  _143
REMARK   62  A    between atoms: _143  and  _253
REMARK   63  A    between atoms: _144  and  _146
REMARK   64  A    between atoms: _146  and  _147
REMARK   65  A    between atoms: _146  and  _149
REMARK   66  A    between atoms: _149  and  _150
REMARK   67  A    between atoms: _150  and  _151
REMARK   68  A    between atoms: _156  and  _158
REMARK   69  A    between atoms: _158  and  _159
REMARK   70  A    between atoms: _161  and  _163
REMARK   71  A    between atoms: _163  and  _164
REMARK   72  A    between atoms: _163  and  _166
REMARK   73  A    between atoms: _166  and  _167
REMARK   74  A    between atoms: _170  and  _172
REMARK   75  A    between atoms: _172  and  _173
REMARK   76  A    between atoms: _172  and  _175
REMARK   77  A    between atoms: _175  and  _176
REMARK   78  A    between atoms: _178  and  _180
REMARK   79  A    between atoms: _180  and  _181
REMARK   80  A    between atoms: _183  and  _185
REMARK   81  A    between atoms: _185  and  _186
REMARK   82  A    between atoms: _188  and  _190
REMARK   83  A    between atoms: _190  and  _191
REMARK   84  A    between atoms: _190  and  _193
REMARK   85  A    between atoms: _193  and  _194
REMARK   86  A    between atoms: _197  and  _199
REMARK   87  A    between atoms: _199  and  _200
REMARK   88  A    between atoms: _199  and  _202
REMARK   89  A    between atoms: _205  and  _207
REMARK   90  A    between atoms: _207  and  _208
REMARK   91  A    between atoms: _207  and  _210
REMARK   92  A    between atoms: _210  and  _211
REMARK   93  A    between atoms: _213  and  _215
REMARK   94  A    between atoms: _215  and  _216
REMARK   95  A    between atoms: _215  and  _218
REMARK   96  A    between atoms: _218  and  _219
REMARK   97  A    between atoms: _229  and  _231
REMARK   98  A    between atoms: _231  and  _232
REMARK   99  A    between atoms: _234  and  _236
REMARK  100  A    between atoms: _236  and  _237
REMARK  101  A    between atoms: _236  and  _239
REMARK  102  A    between atoms: _239  and  _240
REMARK  103  A    between atoms: _242  and  _244
REMARK  104  A    between atoms: _244  and  _245
REMARK  105  A    between atoms: _247  and  _249
REMARK  106  A    between atoms: _249  and  _250
REMARK  107  A    between atoms: _249  and  _252
REMARK  108  A    between atoms: _252  and  _253
REMARK  109  A    between atoms: _254  and  _256
REMARK  110  A    between atoms: _256  and  _257
REMARK  111  A    between atoms: _260  and  _262
REMARK  112  A    between atoms: _262  and  _263
REMARK  113  A    between atoms: _262  and  _265
REMARK  114  A    between atoms: _265  and  _266
REMARK  115  A    between atoms: _266  and  _267
REMARK  116  A    between atoms: _272  and  _274
REMARK  117  A    between atoms: _274  and  _275
REMARK  118  A    between atoms: _274  and  _277
REMARK  119  A    between atoms: _277  and  _278
REMARK  120  A    between atoms: _278  and  _279
REMARK  121  A    between atoms: _279  and  _280
REMARK  122  A    between atoms: _280  and  _281
REMARK  123  A    between atoms: _286  and  _287
REMARK  124  A    between atoms: _292  and  _294
REMARK  125  A    between atoms: _294  and  _295
REMARK  126  A    between atoms: _297  and  _299
REMARK  127  A    between atoms: _299  and  _300
REMARK  128  A    between atoms: _299  and  _302
REMARK  129  A    between atoms: _305  and  _307
REMARK  130  A    between atoms: _307  and  _308
REMARK  131  A    between atoms: _307  and  _310
REMARK  132  A    between atoms: _310  and  _311
REMARK  133  A    between atoms: _316  and  _317
REMARK                            x       y       z     vdW  Elec       q    Type
REMARK                         _______ _______ _______ _____ _____    ______ ____
ROOT
ATOM      1  O   HOH     1      -2.027  21.231  20.444  0.00  0.00    +0.000 OA
ENDROOT
TORSDOF 0
REMARK  Name = ../refined-set-2016/4abe/4abe_pocket.pdb
REMARK  133 active torsions:
REMARK  status: ('A' for Active; 'I' for Inactive)
REMARK    1  A    between atoms: _1  and  _5
REMARK    2  A    between atoms: _5  and  _6
REMARK    3  A    between atoms: _5  and  _8
REMARK    4  A    between atoms: _8  and  _9
REMARK    5  A    between atoms: _12  and  _14
REMARK    6  A    between atoms: _14  and  _15
REMARK    7  A    between atoms: _14  and  _17
REMARK    8  A    between atoms: _20  and  _22
REMARK    9  A    between atoms: _22  and  _23
REMARK   10  A    between atoms: _22  and  _25
REMARK   11  A    between atoms: _25  and  _26
REMARK   12  A    between atoms: _31  and  _33
REMARK   13  A    between atoms: _33  and  _34
REMARK   14  A    between atoms: _33  and  _36
REMARK   15  A    between atoms: _36  and  _37
REMARK   16  A    between atoms: _40  and  _42
REMARK   17  A    between atoms: _42  and  _43
REMARK   18  A    between atoms: _42  and  _45
REMARK   19  A    between atoms: _45  and  _46
REMARK   20  A    between atoms: _49  and  _51
REMARK   21  A    between atoms: _51  and  _52
REMARK   22  A    between atoms: _51  and  _54
REMARK   23  A    between atoms: _54  and  _55
REMARK   24  A    between atoms: _60  and  _62
REMARK   25  A    between atoms: _62  and  _63
REMARK   26  A    between atoms: _62  and  _65
REMARK   27  A    between atoms: _65  and  _66
REMARK   28  A    between atoms: _66  and  _67
REMARK   29  A    between atoms: _67  and  _68
REMARK   30  A    between atoms: _68  and  _69
REMARK   31  A    between atoms: _73  and  _75
REMARK   32  A    between atoms: _75  and  _76
REMARK   33  A    between atoms: _75  and  _78
REMARK   34  A    between atoms: _78  and  _79
REMARK   35  A    between atoms: _84  and  _85
REMARK   36  A    between atoms: _87  and  _89
REMARK   37  A    between atoms: _89  and  _90
REMARK   38  A    between atoms: _89  and  _92
REMARK   39  A    between atoms: _92  and  _93
REMARK   40  A    between atoms: _98  and  _99
REMARK   41  A    between atoms: _101  and  _103
REMARK   42  A    between atoms: _103  and  _104
REMARK   43  A    between atoms: _107  and  _109
REMARK   44  A    between atoms: _109  and  _110
REMARK   45  A    between atoms: _109  and  _112
REMARK   46  A    between atoms: _112  and  _113
REMARK   47  A    between atoms: _113  and  _114
REMARK   48  A    between atoms: _114  and  _115
REMARK   49  A    between atoms: _115  and  _116
REMARK   50  A    between atoms: _120  and  _122
REMARK   51  A    between atoms: _122  and  _123
REMARK   52  A    between atoms: _122  and  _125
REMARK   53  A    between atoms: _125  and  _126
REMARK   54  A    between atoms: _129  and  _131
REMARK   55  A    between atoms: _131  and  _132
REMARK   56  A    between atoms: _131  and  _134
REMARK   57  A    between atoms: _134  and  _135
REMARK   58  A    between atoms: _137  and  _139
REMARK   59  A    between atoms: _139  and  _140
REMARK   60  A    between atoms: _139  and  _142
REMARK   61  A    between atoms: _142  and  _143
REMARK   62  A    between atoms: _143  and  _253
REMARK   63  A    between atoms: _144  and  _146
REMARK   64  A    between atoms: _146  and  _147
REMARK   65  A    between atoms: _146  and  _149
REMARK   66  A    between atoms: _149  and  _150
REMARK   67  A    between atoms: _150  and  _151
REMARK   68  A    between atoms: _156  and  _158
REMARK   69  A    between atoms: _158  and  _159
REMARK   70  A    between atoms: _161  and  _163
REMARK   71  A    between atoms: _163  and  _164
REMARK   72  A    between atoms: _163  and  _166
REMARK   73  A    between atoms: _166  and  _167
REMARK   74  A    between atoms: _170  and  _172
REMARK   75  A    between atoms: _172  and  _173
REMARK   76  A    between atoms: _172  and  _175
REMARK   77  A    between atoms: _175  and  _176
REMARK   78  A    between atoms: _178  and  _180
REMARK   79  A    between atoms: _180  and  _181
REMARK   80  A    between atoms: _183  and  _185
REMARK   81  A    between atoms: _185  and  _186
REMARK   82  A    between atoms: _188  and  _190
REMARK   83  A    between atoms: _190  and  _191
REMARK   84  A    between atoms: _190  and  _193
REMARK   85  A    between atoms: _193  and  _194
REMARK   86  A    between atoms: _197  and  _199
REMARK   87  A    between atoms: _199  and  _200
REMARK   88  A    between atoms: _199  and  _202
REMARK   89  A    between atoms: _205  and  _207
REMARK   90  A    between atoms: _207  and  _208
REMARK   91  A    between atoms: _207  and  _210
REMARK   92  A    between atoms: _210  and  _211
REMARK   93  A    between atoms: _213  and  _215
REMARK   94  A    between atoms: _215  and  _216
REMARK   95  A    between atoms: _215  and  _218
REMARK   96  A    between atoms: _218  and  _219
REMARK   97  A    between atoms: _229  and  _231
REMARK   98  A    between atoms: _231  and  _232
REMARK   99  A    between atoms: _234  and  _236
REMARK  100  A    between atoms: _236  and  _237
REMARK  101  A    between atoms: _236  and  _239
REMARK  102  A    between atoms: _239  and  _240
REMARK  103  A    between atoms: _242  and  _244
REMARK  104  A    between atoms: _244  and  _245
REMARK  105  A    between atoms: _247  and  _249
REMARK  106  A    between atoms: _249  and  _250
REMARK  107  A    between atoms: _249  and  _252
REMARK  108  A    between atoms: _252  and  _253
REMARK  109  A    between atoms: _254  and  _256
REMARK  110  A    between atoms: _256  and  _257
REMARK  111  A    between atoms: _260  and  _262
REMARK  112  A    between atoms: _262  and  _263
REMARK  113  A    between atoms: _262  and  _265
REMARK  114  A    between atoms: _265  and  _266
REMARK  115  A    between atoms: _266  and  _267
REMARK  116  A    between atoms: _272  and  _274
REMARK  117  A    between atoms: _274  and  _275
REMARK  118  A    between atoms: _274  and  _277
REMARK  119  A    between atoms: _277  and  _278
REMARK  120  A    between atoms: _278  and  _279
REMARK  121  A    between atoms: _279  and  _280
REMARK  122  A    between atoms: _280  and  _281
REMARK  123  A    between atoms: _286  and  _287
REMARK  124  A    between atoms: _292  and  _294
REMARK  125  A    between atoms: _294  and  _295
REMARK  126  A    between atoms: _297  and  _299
REMARK  127  A    between atoms: _299  and  _300
REMARK  128  A    between atoms: _299  and  _302
REMARK  129  A    between atoms: _305  and  _307
REMARK  130  A    between atoms: _307  and  _308
REMARK  131  A    between atoms: _307  and  _310
REMARK  132  A    between atoms: _310  and  _311
REMARK  133  A    between atoms: _316  and  _317
REMARK                            x       y       z     vdW  Elec       q    Type
REMARK                         _______ _______ _______ _____ _____    ______ ____
ROOT
ATOM      1  O   HOH     1      -3.861  20.437  23.622  0.00  0.00    +0.000 OA
ENDROOT
TORSDOF 0
REMARK  Name = ../refined-set-2016/4abe/4abe_pocket.pdb
REMARK  133 active torsions:
REMARK  status: ('A' for Active; 'I' for Inactive)
REMARK    1  A    between atoms: _1  and  _5
REMARK    2  A    between atoms: _5  and  _6
REMARK    3  A    between atoms: _5  and  _8
REMARK    4  A    between atoms: _8  and  _9
REMARK    5  A    between atoms: _12  and  _14
REMARK    6  A    between atoms: _14  and  _15
REMARK    7  A    between atoms: _14  and  _17
REMARK    8  A    between atoms: _20  and  _22
REMARK    9  A    between atoms: _22  and  _23
REMARK   10  A    between atoms: _22  and  _25
REMARK   11  A    between atoms: _25  and  _26
REMARK   12  A    between atoms: _31  and  _33
REMARK   13  A    between atoms: _33  and  _34
REMARK   14  A    between atoms: _33  and  _36
REMARK   15  A    between atoms: _36  and  _37
REMARK   16  A    between atoms: _40  and  _42
REMARK   17  A    between atoms: _42  and  _43
REMARK   18  A    between atoms: _42  and  _45
REMARK   19  A    between atoms: _45  and  _46
REMARK   20  A    between atoms: _49  and  _51
REMARK   21  A    between atoms: _51  and  _52
REMARK   22  A    between atoms: _51  and  _54
REMARK   23  A    between atoms: _54  and  _55
REMARK   24  A    between atoms: _60  and  _62
REMARK   25  A    between atoms: _62  and  _63
REMARK   26  A    between atoms: _62  and  _65
REMARK   27  A    between atoms: _65  and  _66
REMARK   28  A    between atoms: _66  and  _67
REMARK   29  A    between atoms: _67  and  _68
REMARK   30  A    between atoms: _68  and  _69
REMARK   31  A    between atoms: _73  and  _75
REMARK   32  A    between atoms: _75  and  _76
REMARK   33  A    between atoms: _75  and  _78
REMARK   34  A    between atoms: _78  and  _79
REMARK   35  A    between atoms: _84  and  _85
REMARK   36  A    between atoms: _87  and  _89
REMARK   37  A    between atoms: _89  and  _90
REMARK   38  A    between atoms: _89  and  _92
REMARK   39  A    between atoms: _92  and  _93
REMARK   40  A    between atoms: _98  and  _99
REMARK   41  A    between atoms: _101  and  _103
REMARK   42  A    between atoms: _103  and  _104
REMARK   43  A    between atoms: _107  and  _109
REMARK   44  A    between atoms: _109  and  _110
REMARK   45  A    between atoms: _109  and  _112
REMARK   46  A    between atoms: _112  and  _113
REMARK   47  A    between atoms: _113  and  _114
REMARK   48  A    between atoms: _114  and  _115
REMARK   49  A    between atoms: _115  and  _116
REMARK   50  A    between atoms: _120  and  _122
REMARK   51  A    between atoms: _122  and  _123
REMARK   52  A    between atoms: _122  and  _125
REMARK   53  A    between atoms: _125  and  _126
REMARK   54  A    between atoms: _129  and  _131
REMARK   55  A    between atoms: _131  and  _132
REMARK   56  A    between atoms: _131  and  _134
REMARK   57  A    between atoms: _134  and  _135
REMARK   58  A    between atoms: _137  and  _139
REMARK   59  A    between atoms: _139  and  _140
REMARK   60  A    between atoms: _139  and  _142
REMARK   61  A    between atoms: _142  and  _143
REMARK   62  A    between atoms: _143  and  _253
REMARK   63  A    between atoms: _144  and  _146
REMARK   64  A    between atoms: _146  and  _147
REMARK   65  A    between atoms: _146  and  _149
REMARK   66  A    between atoms: _149  and  _150
REMARK   67  A    between atoms: _150  and  _151
REMARK   68  A    between atoms: _156  and  _158
REMARK   69  A    between atoms: _158  and  _159
REMARK   70  A    between atoms: _161  and  _163
REMARK   71  A    between atoms: _163  and  _164
REMARK   72  A    between atoms: _163  and  _166
REMARK   73  A    between atoms: _166  and  _167
REMARK   74  A    between atoms: _170  and  _172
REMARK   75  A    between atoms: _172  and  _173
REMARK   76  A    between atoms: _172  and  _175
REMARK   77  A    between atoms: _175  and  _176
REMARK   78  A    between atoms: _178  and  _180
REMARK   79  A    between atoms: _180  and  _181
REMARK   80  A    between atoms: _183  and  _185
REMARK   81  A    between atoms: _185  and  _186
REMARK   82  A    between atoms: _188  and  _190
REMARK   83  A    between atoms: _190  and  _191
REMARK   84  A    between atoms: _190  and  _193
REMARK   85  A    between atoms: _193  and  _194
REMARK   86  A    between atoms: _197  and  _199
REMARK   87  A    between atoms: _199  and  _200
REMARK   88  A    between atoms: _199  and  _202
REMARK   89  A    between atoms: _205  and  _207
REMARK   90  A    between atoms: _207  and  _208
REMARK   91  A    between atoms: _207  and  _210
REMARK   92  A    between atoms: _210  and  _211
REMARK   93  A    between atoms: _213  and  _215
REMARK   94  A    between atoms: _215  and  _216
REMARK   95  A    between atoms: _215  and  _218
REMARK   96  A    between atoms: _218  and  _219
REMARK   97  A    between atoms: _229  and  _231
REMARK   98  A    between atoms: _231  and  _232
REMARK   99  A    between atoms: _234  and  _236
REMARK  100  A    between atoms: _236  and  _237
REMARK  101  A    between atoms: _236  and  _239
REMARK  102  A    between atoms: _239  and  _240
REMARK  103  A    between atoms: _242  and  _244
REMARK  104  A    between atoms: _244  and  _245
REMARK  105  A    between atoms: _247  and  _249
REMARK  106  A    between atoms: _249  and  _250
REMARK  107  A    between atoms: _249  and  _252
REMARK  108  A    between atoms: _252  and  _253
REMARK  109  A    between atoms: _254  and  _256
REMARK  110  A    between atoms: _256  and  _257
REMARK  111  A    between atoms: _260  and  _262
REMARK  112  A    between atoms: _262  and  _263
REMARK  113  A    between atoms: _262  and  _265
REMARK  114  A    between atoms: _265  and  _266
REMARK  115  A    between atoms: _266  and  _267
REMARK  116  A    between atoms: _272  and  _274
REMARK  117  A    between atoms: _274  and  _275
REMARK  118  A    between atoms: _274  and  _277
REMARK  119  A    between atoms: _277  and  _278
REMARK  120  A    between atoms: _278  and  _279
REMARK  121  A    between atoms: _279  and  _280
REMARK  122  A    between atoms: _280  and  _281
REMARK  123  A    between atoms: _286  and  _287
REMARK  124  A    between atoms: _292  and  _294
REMARK  125  A    between atoms: _294  and  _295
REMARK  126  A    between atoms: _297  and  _299
REMARK  127  A    between atoms: _299  and  _300
REMARK  128  A    between atoms: _299  and  _302
REMARK  129  A    between atoms: _305  and  _307
REMARK  130  A    between atoms: _307  and  _308
REMARK  131  A    between atoms: _307  and  _310
REMARK  132  A    between atoms: _310  and  _311
REMARK  133  A    between atoms: _316  and  _317
REMARK                            x       y       z     vdW  Elec       q    Type
REMARK                         _______ _______ _______ _____ _____    ______ ____
ROOT
ATOM      1  O   HOH     1      -4.015  17.797  26.624  0.00  0.00    +0.000 OA
ENDROOT
TORSDOF 0
REMARK  Name = ../refined-set-2016/4abe/4abe_pocket.pdb
REMARK  133 active torsions:
REMARK  status: ('A' for Active; 'I' for Inactive)
REMARK    1  A    between atoms: _1  and  _5
REMARK    2  A    between atoms: _5  and  _6
REMARK    3  A    between atoms: _5  and  _8
REMARK    4  A    between atoms: _8  and  _9
REMARK    5  A    between atoms: _12  and  _14
REMARK    6  A    between atoms: _14  and  _15
REMARK    7  A    between atoms: _14  and  _17
REMARK    8  A    between atoms: _20  and  _22
REMARK    9  A    between atoms: _22  and  _23
REMARK   10  A    between atoms: _22  and  _25
REMARK   11  A    between atoms: _25  and  _26
REMARK   12  A    between atoms: _31  and  _33
REMARK   13  A    between atoms: _33  and  _34
REMARK   14  A    between atoms: _33  and  _36
REMARK   15  A    between atoms: _36  and  _37
REMARK   16  A    between atoms: _40  and  _42
REMARK   17  A    between atoms: _42  and  _43
REMARK   18  A    between atoms: _42  and  _45
REMARK   19  A    between atoms: _45  and  _46
REMARK   20  A    between atoms: _49  and  _51
REMARK   21  A    between atoms: _51  and  _52
REMARK   22  A    between atoms: _51  and  _54
REMARK   23  A    between atoms: _54  and  _55
REMARK   24  A    between atoms: _60  and  _62
REMARK   25  A    between atoms: _62  and  _63
REMARK   26  A    between atoms: _62  and  _65
REMARK   27  A    between atoms: _65  and  _66
REMARK   28  A    between atoms: _66  and  _67
REMARK   29  A    between atoms: _67  and  _68
REMARK   30  A    between atoms: _68  and  _69
REMARK   31  A    between atoms: _73  and  _75
REMARK   32  A    between atoms: _75  and  _76
REMARK   33  A    between atoms: _75  and  _78
REMARK   34  A    between atoms: _78  and  _79
REMARK   35  A    between atoms: _84  and  _85
REMARK   36  A    between atoms: _87  and  _89
REMARK   37  A    between atoms: _89  and  _90
REMARK   38  A    between atoms: _89  and  _92
REMARK   39  A    between atoms: _92  and  _93
REMARK   40  A    between atoms: _98  and  _99
REMARK   41  A    between atoms: _101  and  _103
REMARK   42  A    between atoms: _103  and  _104
REMARK   43  A    between atoms: _107  and  _109
REMARK   44  A    between atoms: _109  and  _110
REMARK   45  A    between atoms: _109  and  _112
REMARK   46  A    between atoms: _112  and  _113
REMARK   47  A    between atoms: _113  and  _114
REMARK   48  A    between atoms: _114  and  _115
REMARK   49  A    between atoms: _115  and  _116
REMARK   50  A    between atoms: _120  and  _122
REMARK   51  A    between atoms: _122  and  _123
REMARK   52  A    between atoms: _122  and  _125
REMARK   53  A    between atoms: _125  and  _126
REMARK   54  A    between atoms: _129  and  _131
REMARK   55  A    between atoms: _131  and  _132
REMARK   56  A    between atoms: _131  and  _134
REMARK   57  A    between atoms: _134  and  _135
REMARK   58  A    between atoms: _137  and  _139
REMARK   59  A    between atoms: _139  and  _140
REMARK   60  A    between atoms: _139  and  _142
REMARK   61  A    between atoms: _142  and  _143
REMARK   62  A    between atoms: _143  and  _253
REMARK   63  A    between atoms: _144  and  _146
REMARK   64  A    between atoms: _146  and  _147
REMARK   65  A    between atoms: _146  and  _149
REMARK   66  A    between atoms: _149  and  _150
REMARK   67  A    between atoms: _150  and  _151
REMARK   68  A    between atoms: _156  and  _158
REMARK   69  A    between atoms: _158  and  _159
REMARK   70  A    between atoms: _161  and  _163
REMARK   71  A    between atoms: _163  and  _164
REMARK   72  A    between atoms: _163  and  _166
REMARK   73  A    between atoms: _166  and  _167
REMARK   74  A    between atoms: _170  and  _172
REMARK   75  A    between atoms: _172  and  _173
REMARK   76  A    between atoms: _172  and  _175
REMARK   77  A    between atoms: _175  and  _176
REMARK   78  A    between atoms: _178  and  _180
REMARK   79  A    between atoms: _180  and  _181
REMARK   80  A    between atoms: _183  and  _185
REMARK   81  A    between atoms: _185  and  _186
REMARK   82  A    between atoms: _188  and  _190
REMARK   83  A    between atoms: _190  and  _191
REMARK   84  A    between atoms: _190  and  _193
REMARK   85  A    between atoms: _193  and  _194
REMARK   86  A    between atoms: _197  and  _199
REMARK   87  A    between atoms: _199  and  _200
REMARK   88  A    between atoms: _199  and  _202
REMARK   89  A    between atoms: _205  and  _207
REMARK   90  A    between atoms: _207  and  _208
REMARK   91  A    between atoms: _207  and  _210
REMARK   92  A    between atoms: _210  and  _211
REMARK   93  A    between atoms: _213  and  _215
REMARK   94  A    between atoms: _215  and  _216
REMARK   95  A    between atoms: _215  and  _218
REMARK   96  A    between atoms: _218  and  _219
REMARK   97  A    between atoms: _229  and  _231
REMARK   98  A    between atoms: _231  and  _232
REMARK   99  A    between atoms: _234  and  _236
REMARK  100  A    between atoms: _236  and  _237
REMARK  101  A    between atoms: _236  and  _239
REMARK  102  A    between atoms: _239  and  _240
REMARK  103  A    between atoms: _242  and  _244
REMARK  104  A    between atoms: _244  and  _245
REMARK  105  A    between atoms: _247  and  _249
REMARK  106  A    between atoms: _249  and  _250
REMARK  107  A    between atoms: _249  and  _252
REMARK  108  A    between atoms: _252  and  _253
REMARK  109  A    between atoms: _254  and  _256
REMARK  110  A    between atoms: _256  and  _257
REMARK  111  A    between atoms: _260  and  _262
REMARK  112  A    between atoms: _262  and  _263
REMARK  113  A    between atoms: _262  and  _265
REMARK  114  A    between atoms: _265  and  _266
REMARK  115  A    between atoms: _266  and  _267
REMARK  116  A    between atoms: _272  and  _274
REMARK  117  A    between atoms: _274  and  _275
REMARK  118  A    between atoms: _274  and  _277
REMARK  119  A    between atoms: _277  and  _278
REMARK  120  A    between atoms: _278  and  _279
REMARK  121  A    between atoms: _279  and  _280
REMARK  122  A    between atoms: _280  and  _281
REMARK  123  A    between atoms: _286  and  _287
REMARK  124  A    between atoms: _292  and  _294
REMARK  125  A    between atoms: _294  and  _295
REMARK  126  A    between atoms: _297  and  _299
REMARK  127  A    between atoms: _299  and  _300
REMARK  128  A    between atoms: _299  and  _302
REMARK  129  A    between atoms: _305  and  _307
REMARK  130  A    between atoms: _307  and  _308
REMARK  131  A    between atoms: _307  and  _310
REMARK  132  A    between atoms: _310  and  _311
REMARK  133  A    between atoms: _316  and  _317
REMARK                            x       y       z     vdW  Elec       q    Type
REMARK                         _______ _______ _______ _____ _____    ______ ____
ROOT
ATOM      1  O   HOH     1      -4.759  14.059  23.055  0.00  0.00    +0.000 OA
ENDROOT
TORSDOF 0
REMARK  Name = ../refined-set-2016/4abe/4abe_pocket.pdb
REMARK  133 active torsions:
REMARK  status: ('A' for Active; 'I' for Inactive)
REMARK    1  A    between atoms: _1  and  _5
REMARK    2  A    between atoms: _5  and  _6
REMARK    3  A    between atoms: _5  and  _8
REMARK    4  A    between atoms: _8  and  _9
REMARK    5  A    between atoms: _12  and  _14
REMARK    6  A    between atoms: _14  and  _15
REMARK    7  A    between atoms: _14  and  _17
REMARK    8  A    between atoms: _20  and  _22
REMARK    9  A    between atoms: _22  and  _23
REMARK   10  A    between atoms: _22  and  _25
REMARK   11  A    between atoms: _25  and  _26
REMARK   12  A    between atoms: _31  and  _33
REMARK   13  A    between atoms: _33  and  _34
REMARK   14  A    between atoms: _33  and  _36
REMARK   15  A    between atoms: _36  and  _37
REMARK   16  A    between atoms: _40  and  _42
REMARK   17  A    between atoms: _42  and  _43
REMARK   18  A    between atoms: _42  and  _45
REMARK   19  A    between atoms: _45  and  _46
REMARK   20  A    between atoms: _49  and  _51
REMARK   21  A    between atoms: _51  and  _52
REMARK   22  A    between atoms: _51  and  _54
REMARK   23  A    between atoms: _54  and  _55
REMARK   24  A    between atoms: _60  and  _62
REMARK   25  A    between atoms: _62  and  _63
REMARK   26  A    between atoms: _62  and  _65
REMARK   27  A    between atoms: _65  and  _66
REMARK   28  A    between atoms: _66  and  _67
REMARK   29  A    between atoms: _67  and  _68
REMARK   30  A    between atoms: _68  and  _69
REMARK   31  A    between atoms: _73  and  _75
REMARK   32  A    between atoms: _75  and  _76
REMARK   33  A    between atoms: _75  and  _78
REMARK   34  A    between atoms: _78  and  _79
REMARK   35  A    between atoms: _84  and  _85
REMARK   36  A    between atoms: _87  and  _89
REMARK   37  A    between atoms: _89  and  _90
REMARK   38  A    between atoms: _89  and  _92
REMARK   39  A    between atoms: _92  and  _93
REMARK   40  A    between atoms: _98  and  _99
REMARK   41  A    between atoms: _101  and  _103
REMARK   42  A    between atoms: _103  and  _104
REMARK   43  A    between atoms: _107  and  _109
REMARK   44  A    between atoms: _109  and  _110
REMARK   45  A    between atoms: _109  and  _112
REMARK   46  A    between atoms: _112  and  _113
REMARK   47  A    between atoms: _113  and  _114
REMARK   48  A    between atoms: _114  and  _115
REMARK   49  A    between atoms: _115  and  _116
REMARK   50  A    between atoms: _120  and  _122
REMARK   51  A    between atoms: _122  and  _123
REMARK   52  A    between atoms: _122  and  _125
REMARK   53  A    between atoms: _125  and  _126
REMARK   54  A    between atoms: _129  and  _131
REMARK   55  A    between atoms: _131  and  _132
REMARK   56  A    between atoms: _131  and  _134
REMARK   57  A    between atoms: _134  and  _135
REMARK   58  A    between atoms: _137  and  _139
REMARK   59  A    between atoms: _139  and  _140
REMARK   60  A    between atoms: _139  and  _142
REMARK   61  A    between atoms: _142  and  _143
REMARK   62  A    between atoms: _143  and  _253
REMARK   63  A    between atoms: _144  and  _146
REMARK   64  A    between atoms: _146  and  _147
REMARK   65  A    between atoms: _146  and  _149
REMARK   66  A    between atoms: _149  and  _150
REMARK   67  A    between atoms: _150  and  _151
REMARK   68  A    between atoms: _156  and  _158
REMARK   69  A    between atoms: _158  and  _159
REMARK   70  A    between atoms: _161  and  _163
REMARK   71  A    between atoms: _163  and  _164
REMARK   72  A    between atoms: _163  and  _166
REMARK   73  A    between atoms: _166  and  _167
REMARK   74  A    between atoms: _170  and  _172
REMARK   75  A    between atoms: _172  and  _173
REMARK   76  A    between atoms: _172  and  _175
REMARK   77  A    between atoms: _175  and  _176
REMARK   78  A    between atoms: _178  and  _180
REMARK   79  A    between atoms: _180  and  _181
REMARK   80  A    between atoms: _183  and  _185
REMARK   81  A    between atoms: _185  and  _186
REMARK   82  A    between atoms: _188  and  _190
REMARK   83  A    between atoms: _190  and  _191
REMARK   84  A    between atoms: _190  and  _193
REMARK   85  A    between atoms: _193  and  _194
REMARK   86  A    between atoms: _197  and  _199
REMARK   87  A    between atoms: _199  and  _200
REMARK   88  A    between atoms: _199  and  _202
REMARK   89  A    between atoms: _205  and  _207
REMARK   90  A    between atoms: _207  and  _208
REMARK   91  A    between atoms: _207  and  _210
REMARK   92  A    between atoms: _210  and  _211
REMARK   93  A    between atoms: _213  and  _215
REMARK   94  A    between atoms: _215  and  _216
REMARK   95  A    between atoms: _215  and  _218
REMARK   96  A    between atoms: _218  and  _219
REMARK   97  A    between atoms: _229  and  _231
REMARK   98  A    between atoms: _231  and  _232
REMARK   99  A    between atoms: _234  and  _236
REMARK  100  A    between atoms: _236  and  _237
REMARK  101  A    between atoms: _236  and  _239
REMARK  102  A    between atoms: _239  and  _240
REMARK  103  A    between atoms: _242  and  _244
REMARK  104  A    between atoms: _244  and  _245
REMARK  105  A    between atoms: _247  and  _249
REMARK  106  A    between atoms: _249  and  _250
REMARK  107  A    between atoms: _249  and  _252
REMARK  108  A    between atoms: _252  and  _253
REMARK  109  A    between atoms: _254  and  _256
REMARK  110  A    between atoms: _256  and  _257
REMARK  111  A    between atoms: _260  and  _262
REMARK  112  A    between atoms: _262  and  _263
REMARK  113  A    between atoms: _262  and  _265
REMARK  114  A    between atoms: _265  and  _266
REMARK  115  A    between atoms: _266  and  _267
REMARK  116  A    between atoms: _272  and  _274
REMARK  117  A    between atoms: _274  and  _275
REMARK  118  A    between atoms: _274  and  _277
REMARK  119  A    between atoms: _277  and  _278
REMARK  120  A    between atoms: _278  and  _279
REMARK  121  A    between atoms: _279  and  _280
REMARK  122  A    between atoms: _280  and  _281
REMARK  123  A    between atoms: _286  and  _287
REMARK  124  A    between atoms: _292  and  _294
REMARK  125  A    between atoms: _294  and  _295
REMARK  126  A    between atoms: _297  and  _299
REMARK  127  A    between atoms: _299  and  _300
REMARK  128  A    between atoms: _299  and  _302
REMARK  129  A    between atoms: _305  and  _307
REMARK  130  A    between atoms: _307  and  _308
REMARK  131  A    between atoms: _307  and  _310
REMARK  132  A    between atoms: _310  and  _311
REMARK  133  A    between atoms: _316  and  _317
REMARK                            x       y       z     vdW  Elec       q    Type
REMARK                         _______ _______ _______ _____ _____    ______ ____
ROOT
ATOM      1  O   HOH     1      -4.813  17.829  24.041  0.00  0.00    +0.000 OA
ENDROOT
TORSDOF 0
REMARK  Name = ../refined-set-2016/4abe/4abe_pocket.pdb
REMARK  133 active torsions:
REMARK  status: ('A' for Active; 'I' for Inactive)
REMARK    1  A    between atoms: _1  and  _5
REMARK    2  A    between atoms: _5  and  _6
REMARK    3  A    between atoms: _5  and  _8
REMARK    4  A    between atoms: _8  and  _9
REMARK    5  A    between atoms: _12  and  _14
REMARK    6  A    between atoms: _14  and  _15
REMARK    7  A    between atoms: _14  and  _17
REMARK    8  A    between atoms: _20  and  _22
REMARK    9  A    between atoms: _22  and  _23
REMARK   10  A    between atoms: _22  and  _25
REMARK   11  A    between atoms: _25  and  _26
REMARK   12  A    between atoms: _31  and  _33
REMARK   13  A    between atoms: _33  and  _34
REMARK   14  A    between atoms: _33  and  _36
REMARK   15  A    between atoms: _36  and  _37
REMARK   16  A    between atoms: _40  and  _42
REMARK   17  A    between atoms: _42  and  _43
REMARK   18  A    between atoms: _42  and  _45
REMARK   19  A    between atoms: _45  and  _46
REMARK   20  A    between atoms: _49  and  _51
REMARK   21  A    between atoms: _51  and  _52
REMARK   22  A    between atoms: _51  and  _54
REMARK   23  A    between atoms: _54  and  _55
REMARK   24  A    between atoms: _60  and  _62
REMARK   25  A    between atoms: _62  and  _63
REMARK   26  A    between atoms: _62  and  _65
REMARK   27  A    between atoms: _65  and  _66
REMARK   28  A    between atoms: _66  and  _67
REMARK   29  A    between atoms: _67  and  _68
REMARK   30  A    between atoms: _68  and  _69
REMARK   31  A    between atoms: _73  and  _75
REMARK   32  A    between atoms: _75  and  _76
REMARK   33  A    between atoms: _75  and  _78
REMARK   34  A    between atoms: _78  and  _79
REMARK   35  A    between atoms: _84  and  _85
REMARK   36  A    between atoms: _87  and  _89
REMARK   37  A    between atoms: _89  and  _90
REMARK   38  A    between atoms: _89  and  _92
REMARK   39  A    between atoms: _92  and  _93
REMARK   40  A    between atoms: _98  and  _99
REMARK   41  A    between atoms: _101  and  _103
REMARK   42  A    between atoms: _103  and  _104
REMARK   43  A    between atoms: _107  and  _109
REMARK   44  A    between atoms: _109  and  _110
REMARK   45  A    between atoms: _109  and  _112
REMARK   46  A    between atoms: _112  and  _113
REMARK   47  A    between atoms: _113  and  _114
REMARK   48  A    between atoms: _114  and  _115
REMARK   49  A    between atoms: _115  and  _116
REMARK   50  A    between atoms: _120  and  _122
REMARK   51  A    between atoms: _122  and  _123
REMARK   52  A    between atoms: _122  and  _125
REMARK   53  A    between atoms: _125  and  _126
REMARK   54  A    between atoms: _129  and  _131
REMARK   55  A    between atoms: _131  and  _132
REMARK   56  A    between atoms: _131  and  _134
REMARK   57  A    between atoms: _134  and  _135
REMARK   58  A    between atoms: _137  and  _139
REMARK   59  A    between atoms: _139  and  _140
REMARK   60  A    between atoms: _139  and  _142
REMARK   61  A    between atoms: _142  and  _143
REMARK   62  A    between atoms: _143  and  _253
REMARK   63  A    between atoms: _144  and  _146
REMARK   64  A    between atoms: _146  and  _147
REMARK   65  A    between atoms: _146  and  _149
REMARK   66  A    between atoms: _149  and  _150
REMARK   67  A    between atoms: _150  and  _151
REMARK   68  A    between atoms: _156  and  _158
REMARK   69  A    between atoms: _158  and  _159
REMARK   70  A    between atoms: _161  and  _163
REMARK   71  A    between atoms: _163  and  _164
REMARK   72  A    between atoms: _163  and  _166
REMARK   73  A    between atoms: _166  and  _167
REMARK   74  A    between atoms: _170  and  _172
REMARK   75  A    between atoms: _172  and  _173
REMARK   76  A    between atoms: _172  and  _175
REMARK   77  A    between atoms: _175  and  _176
REMARK   78  A    between atoms: _178  and  _180
REMARK   79  A    between atoms: _180  and  _181
REMARK   80  A    between atoms: _183  and  _185
REMARK   81  A    between atoms: _185  and  _186
REMARK   82  A    between atoms: _188  and  _190
REMARK   83  A    between atoms: _190  and  _191
REMARK   84  A    between atoms: _190  and  _193
REMARK   85  A    between atoms: _193  and  _194
REMARK   86  A    between atoms: _197  and  _199
REMARK   87  A    between atoms: _199  and  _200
REMARK   88  A    between atoms: _199  and  _202
REMARK   89  A    between atoms: _205  and  _207
REMARK   90  A    between atoms: _207  and  _208
REMARK   91  A    between atoms: _207  and  _210
REMARK   92  A    between atoms: _210  and  _211
REMARK   93  A    between atoms: _213  and  _215
REMARK   94  A    between atoms: _215  and  _216
REMARK   95  A    between atoms: _215  and  _218
REMARK   96  A    between atoms: _218  and  _219
REMARK   97  A    between atoms: _229  and  _231
REMARK   98  A    between atoms: _231  and  _232
REMARK   99  A    between atoms: _234  and  _236
REMARK  100  A    between atoms: _236  and  _237
REMARK  101  A    between atoms: _236  and  _239
REMARK  102  A    between atoms: _239  and  _240
REMARK  103  A    between atoms: _242  and  _244
REMARK  104  A    between atoms: _244  and  _245
REMARK  105  A    between atoms: _247  and  _249
REMARK  106  A    between atoms: _249  and  _250
REMARK  107  A    between atoms: _249  and  _252
REMARK  108  A    between atoms: _252  and  _253
REMARK  109  A    between atoms: _254  and  _256
REMARK  110  A    between atoms: _256  and  _257
REMARK  111  A    between atoms: _260  and  _262
REMARK  112  A    between atoms: _262  and  _263
REMARK  113  A    between atoms: _262  and  _265
REMARK  114  A    between atoms: _265  and  _266
REMARK  115  A    between atoms: _266  and  _267
REMARK  116  A    between atoms: _272  and  _274
REMARK  117  A    between atoms: _274  and  _275
REMARK  118  A    between atoms: _274  and  _277
REMARK  119  A    between atoms: _277  and  _278
REMARK  120  A    between atoms: _278  and  _279
REMARK  121  A    between atoms: _279  and  _280
REMARK  122  A    between atoms: _280  and  _281
REMARK  123  A    between atoms: _286  and  _287
REMARK  124  A    between atoms: _292  and  _294
REMARK  125  A    between atoms: _294  and  _295
REMARK  126  A    between atoms: _297  and  _299
REMARK  127  A    between atoms: _299  and  _300
REMARK  128  A    between atoms: _299  and  _302
REMARK  129  A    between atoms: _305  and  _307
REMARK  130  A    between atoms: _307  and  _308
REMARK  131  A    between atoms: _307  and  _310
REMARK  132  A    between atoms: _310  and  _311
REMARK  133  A    between atoms: _316  and  _317
REMARK                            x       y       z     vdW  Elec       q    Type
REMARK                         _______ _______ _______ _____ _____    ______ ____
ROOT
ATOM      1  O   HOH     1      -2.311  14.780  21.057  0.00  0.00    +0.000 OA
ENDROOT
TORSDOF 0
REMARK  Name = ../refined-set-2016/4abe/4abe_pocket.pdb
REMARK  133 active torsions:
REMARK  status: ('A' for Active; 'I' for Inactive)
REMARK    1  A    between atoms: _1  and  _5
REMARK    2  A    between atoms: _5  and  _6
REMARK    3  A    between atoms: _5  and  _8
REMARK    4  A    between atoms: _8  and  _9
REMARK    5  A    between atoms: _12  and  _14
REMARK    6  A    between atoms: _14  and  _15
REMARK    7  A    between atoms: _14  and  _17
REMARK    8  A    between atoms: _20  and  _22
REMARK    9  A    between atoms: _22  and  _23
REMARK   10  A    between atoms: _22  and  _25
REMARK   11  A    between atoms: _25  and  _26
REMARK   12  A    between atoms: _31  and  _33
REMARK   13  A    between atoms: _33  and  _34
REMARK   14  A    between atoms: _33  and  _36
REMARK   15  A    between atoms: _36  and  _37
REMARK   16  A    between atoms: _40  and  _42
REMARK   17  A    between atoms: _42  and  _43
REMARK   18  A    between atoms: _42  and  _45
REMARK   19  A    between atoms: _45  and  _46
REMARK   20  A    between atoms: _49  and  _51
REMARK   21  A    between atoms: _51  and  _52
REMARK   22  A    between atoms: _51  and  _54
REMARK   23  A    between atoms: _54  and  _55
REMARK   24  A    between atoms: _60  and  _62
REMARK   25  A    between atoms: _62  and  _63
REMARK   26  A    between atoms: _62  and  _65
REMARK   27  A    between atoms: _65  and  _66
REMARK   28  A    between atoms: _66  and  _67
REMARK   29  A    between atoms: _67  and  _68
REMARK   30  A    between atoms: _68  and  _69
REMARK   31  A    between atoms: _73  and  _75
REMARK   32  A    between atoms: _75  and  _76
REMARK   33  A    between atoms: _75  and  _78
REMARK   34  A    between atoms: _78  and  _79
REMARK   35  A    between atoms: _84  and  _85
REMARK   36  A    between atoms: _87  and  _89
REMARK   37  A    between atoms: _89  and  _90
REMARK   38  A    between atoms: _89  and  _92
REMARK   39  A    between atoms: _92  and  _93
REMARK   40  A    between atoms: _98  and  _99
REMARK   41  A    between atoms: _101  and  _103
REMARK   42  A    between atoms: _103  and  _104
REMARK   43  A    between atoms: _107  and  _109
REMARK   44  A    between atoms: _109  and  _110
REMARK   45  A    between atoms: _109  and  _112
REMARK   46  A    between atoms: _112  and  _113
REMARK   47  A    between atoms: _113  and  _114
REMARK   48  A    between atoms: _114  and  _115
REMARK   49  A    between atoms: _115  and  _116
REMARK   50  A    between atoms: _120  and  _122
REMARK   51  A    between atoms: _122  and  _123
REMARK   52  A    between atoms: _122  and  _125
REMARK   53  A    between atoms: _125  and  _126
REMARK   54  A    between atoms: _129  and  _131
REMARK   55  A    between atoms: _131  and  _132
REMARK   56  A    between atoms: _131  and  _134
REMARK   57  A    between atoms: _134  and  _135
REMARK   58  A    between atoms: _137  and  _139
REMARK   59  A    between atoms: _139  and  _140
REMARK   60  A    between atoms: _139  and  _142
REMARK   61  A    between atoms: _142  and  _143
REMARK   62  A    between atoms: _143  and  _253
REMARK   63  A    between atoms: _144  and  _146
REMARK   64  A    between atoms: _146  and  _147
REMARK   65  A    between atoms: _146  and  _149
REMARK   66  A    between atoms: _149  and  _150
REMARK   67  A    between atoms: _150  and  _151
REMARK   68  A    between atoms: _156  and  _158
REMARK   69  A    between atoms: _158  and  _159
REMARK   70  A    between atoms: _161  and  _163
REMARK   71  A    between atoms: _163  and  _164
REMARK   72  A    between atoms: _163  and  _166
REMARK   73  A    between atoms: _166  and  _167
REMARK   74  A    between atoms: _170  and  _172
REMARK   75  A    between atoms: _172  and  _173
REMARK   76  A    between atoms: _172  and  _175
REMARK   77  A    between atoms: _175  and  _176
REMARK   78  A    between atoms: _178  and  _180
REMARK   79  A    between atoms: _180  and  _181
REMARK   80  A    between atoms: _183  and  _185
REMARK   81  A    between atoms: _185  and  _186
REMARK   82  A    between atoms: _188  and  _190
REMARK   83  A    between atoms: _190  and  _191
REMARK   84  A    between atoms: _190  and  _193
REMARK   85  A    between atoms: _193  and  _194
REMARK   86  A    between atoms: _197  and  _199
REMARK   87  A    between atoms: _199  and  _200
REMARK   88  A    between atoms: _199  and  _202
REMARK   89  A    between atoms: _205  and  _207
REMARK   90  A    between atoms: _207  and  _208
REMARK   91  A    between atoms: _207  and  _210
REMARK   92  A    between atoms: _210  and  _211
REMARK   93  A    between atoms: _213  and  _215
REMARK   94  A    between atoms: _215  and  _216
REMARK   95  A    between atoms: _215  and  _218
REMARK   96  A    between atoms: _218  and  _219
REMARK   97  A    between atoms: _229  and  _231
REMARK   98  A    between atoms: _231  and  _232
REMARK   99  A    between atoms: _234  and  _236
REMARK  100  A    between atoms: _236  and  _237
REMARK  101  A    between atoms: _236  and  _239
REMARK  102  A    between atoms: _239  and  _240
REMARK  103  A    between atoms: _242  and  _244
REMARK  104  A    between atoms: _244  and  _245
REMARK  105  A    between atoms: _247  and  _249
REMARK  106  A    between atoms: _249  and  _250
REMARK  107  A    between atoms: _249  and  _252
REMARK  108  A    between atoms: _252  and  _253
REMARK  109  A    between atoms: _254  and  _256
REMARK  110  A    between atoms: _256  and  _257
REMARK  111  A    between atoms: _260  and  _262
REMARK  112  A    between atoms: _262  and  _263
REMARK  113  A    between atoms: _262  and  _265
REMARK  114  A    between atoms: _265  and  _266
REMARK  115  A    between atoms: _266  and  _267
REMARK  116  A    between atoms: _272  and  _274
REMARK  117  A    between atoms: _274  and  _275
REMARK  118  A    between atoms: _274  and  _277
REMARK  119  A    between atoms: _277  and  _278
REMARK  120  A    between atoms: _278  and  _279
REMARK  121  A    between atoms: _279  and  _280
REMARK  122  A    between atoms: _280  and  _281
REMARK  123  A    between atoms: _286  and  _287
REMARK  124  A    between atoms: _292  and  _294
REMARK  125  A    between atoms: _294  and  _295
REMARK  126  A    between atoms: _297  and  _299
REMARK  127  A    between atoms: _299  and  _300
REMARK  128  A    between atoms: _299  and  _302
REMARK  129  A    between atoms: _305  and  _307
REMARK  130  A    between atoms: _307  and  _308
REMARK  131  A    between atoms: _307  and  _310
REMARK  132  A    between atoms: _310  and  _311
REMARK  133  A    between atoms: _316  and  _317
REMARK                            x       y       z     vdW  Elec       q    Type
REMARK                         _______ _______ _______ _____ _____    ______ ____
ROOT
ATOM      1  O   HOH     1       0.775  17.613  17.370  0.00  0.00    +0.000 OA
ENDROOT
TORSDOF 0
REMARK  Name = ../refined-set-2016/4abe/4abe_pocket.pdb
REMARK  133 active torsions:
REMARK  status: ('A' for Active; 'I' for Inactive)
REMARK    1  A    between atoms: _1  and  _5
REMARK    2  A    between atoms: _5  and  _6
REMARK    3  A    between atoms: _5  and  _8
REMARK    4  A    between atoms: _8  and  _9
REMARK    5  A    between atoms: _12  and  _14
REMARK    6  A    between atoms: _14  and  _15
REMARK    7  A    between atoms: _14  and  _17
REMARK    8  A    between atoms: _20  and  _22
REMARK    9  A    between atoms: _22  and  _23
REMARK   10  A    between atoms: _22  and  _25
REMARK   11  A    between atoms: _25  and  _26
REMARK   12  A    between atoms: _31  and  _33
REMARK   13  A    between atoms: _33  and  _34
REMARK   14  A    between atoms: _33  and  _36
REMARK   15  A    between atoms: _36  and  _37
REMARK   16  A    between atoms: _40  and  _42
REMARK   17  A    between atoms: _42  and  _43
REMARK   18  A    between atoms: _42  and  _45
REMARK   19  A    between atoms: _45  and  _46
REMARK   20  A    between atoms: _49  and  _51
REMARK   21  A    between atoms: _51  and  _52
REMARK   22  A    between atoms: _51  and  _54
REMARK   23  A    between atoms: _54  and  _55
REMARK   24  A    between atoms: _60  and  _62
REMARK   25  A    between atoms: _62  and  _63
REMARK   26  A    between atoms: _62  and  _65
REMARK   27  A    between atoms: _65  and  _66
REMARK   28  A    between atoms: _66  and  _67
REMARK   29  A    between atoms: _67  and  _68
REMARK   30  A    between atoms: _68  and  _69
REMARK   31  A    between atoms: _73  and  _75
REMARK   32  A    between atoms: _75  and  _76
REMARK   33  A    between atoms: _75  and  _78
REMARK   34  A    between atoms: _78  and  _79
REMARK   35  A    between atoms: _84  and  _85
REMARK   36  A    between atoms: _87  and  _89
REMARK   37  A    between atoms: _89  and  _90
REMARK   38  A    between atoms: _89  and  _92
REMARK   39  A    between atoms: _92  and  _93
REMARK   40  A    between atoms: _98  and  _99
REMARK   41  A    between atoms: _101  and  _103
REMARK   42  A    between atoms: _103  and  _104
REMARK   43  A    between atoms: _107  and  _109
REMARK   44  A    between atoms: _109  and  _110
REMARK   45  A    between atoms: _109  and  _112
REMARK   46  A    between atoms: _112  and  _113
REMARK   47  A    between atoms: _113  and  _114
REMARK   48  A    between atoms: _114  and  _115
REMARK   49  A    between atoms: _115  and  _116
REMARK   50  A    between atoms: _120  and  _122
REMARK   51  A    between atoms: _122  and  _123
REMARK   52  A    between atoms: _122  and  _125
REMARK   53  A    between atoms: _125  and  _126
REMARK   54  A    between atoms: _129  and  _131
REMARK   55  A    between atoms: _131  and  _132
REMARK   56  A    between atoms: _131  and  _134
REMARK   57  A    between atoms: _134  and  _135
REMARK   58  A    between atoms: _137  and  _139
REMARK   59  A    between atoms: _139  and  _140
REMARK   60  A    between atoms: _139  and  _142
REMARK   61  A    between atoms: _142  and  _143
REMARK   62  A    between atoms: _143  and  _253
REMARK   63  A    between atoms: _144  and  _146
REMARK   64  A    between atoms: _146  and  _147
REMARK   65  A    between atoms: _146  and  _149
REMARK   66  A    between atoms: _149  and  _150
REMARK   67  A    between atoms: _150  and  _151
REMARK   68  A    between atoms: _156  and  _158
REMARK   69  A    between atoms: _158  and  _159
REMARK   70  A    between atoms: _161  and  _163
REMARK   71  A    between atoms: _163  and  _164
REMARK   72  A    between atoms: _163  and  _166
REMARK   73  A    between atoms: _166  and  _167
REMARK   74  A    between atoms: _170  and  _172
REMARK   75  A    between atoms: _172  and  _173
REMARK   76  A    between atoms: _172  and  _175
REMARK   77  A    between atoms: _175  and  _176
REMARK   78  A    between atoms: _178  and  _180
REMARK   79  A    between atoms: _180  and  _181
REMARK   80  A    between atoms: _183  and  _185
REMARK   81  A    between atoms: _185  and  _186
REMARK   82  A    between atoms: _188  and  _190
REMARK   83  A    between atoms: _190  and  _191
REMARK   84  A    between atoms: _190  and  _193
REMARK   85  A    between atoms: _193  and  _194
REMARK   86  A    between atoms: _197  and  _199
REMARK   87  A    between atoms: _199  and  _200
REMARK   88  A    between atoms: _199  and  _202
REMARK   89  A    between atoms: _205  and  _207
REMARK   90  A    between atoms: _207  and  _208
REMARK   91  A    between atoms: _207  and  _210
REMARK   92  A    between atoms: _210  and  _211
REMARK   93  A    between atoms: _213  and  _215
REMARK   94  A    between atoms: _215  and  _216
REMARK   95  A    between atoms: _215  and  _218
REMARK   96  A    between atoms: _218  and  _219
REMARK   97  A    between atoms: _229  and  _231
REMARK   98  A    between atoms: _231  and  _232
REMARK   99  A    between atoms: _234  and  _236
REMARK  100  A    between atoms: _236  and  _237
REMARK  101  A    between atoms: _236  and  _239
REMARK  102  A    between atoms: _239  and  _240
REMARK  103  A    between atoms: _242  and  _244
REMARK  104  A    between atoms: _244  and  _245
REMARK  105  A    between atoms: _247  and  _249
REMARK  106  A    between atoms: _249  and  _250
REMARK  107  A    between atoms: _249  and  _252
REMARK  108  A    between atoms: _252  and  _253
REMARK  109  A    between atoms: _254  and  _256
REMARK  110  A    between atoms: _256  and  _257
REMARK  111  A    between atoms: _260  and  _262
REMARK  112  A    between atoms: _262  and  _263
REMARK  113  A    between atoms: _262  and  _265
REMARK  114  A    between atoms: _265  and  _266
REMARK  115  A    between atoms: _266  and  _267
REMARK  116  A    between atoms: _272  and  _274
REMARK  117  A    between atoms: _274  and  _275
REMARK  118  A    between atoms: _274  and  _277
REMARK  119  A    between atoms: _277  and  _278
REMARK  120  A    between atoms: _278  and  _279
REMARK  121  A    between atoms: _279  and  _280
REMARK  122  A    between atoms: _280  and  _281
REMARK  123  A    between atoms: _286  and  _287
REMARK  124  A    between atoms: _292  and  _294
REMARK  125  A    between atoms: _294  and  _295
REMARK  126  A    between atoms: _297  and  _299
REMARK  127  A    between atoms: _299  and  _300
REMARK  128  A    between atoms: _299  and  _302
REMARK  129  A    between atoms: _305  and  _307
REMARK  130  A    between atoms: _307  and  _308
REMARK  131  A    between atoms: _307  and  _310
REMARK  132  A    between atoms: _310  and  _311
REMARK  133  A    between atoms: _316  and  _317
REMARK                            x       y       z     vdW  Elec       q    Type
REMARK                         _______ _______ _______ _____ _____    ______ ____
ROOT
ATOM      1  O   HOH     1      -7.718   9.872  17.957  0.00  0.00    +0.000 OA
ENDROOT
TORSDOF 0
REMARK  Name = ../refined-set-2016/4abe/4abe_pocket.pdb
REMARK  133 active torsions:
REMARK  status: ('A' for Active; 'I' for Inactive)
REMARK    1  A    between atoms: _1  and  _5
REMARK    2  A    between atoms: _5  and  _6
REMARK    3  A    between atoms: _5  and  _8
REMARK    4  A    between atoms: _8  and  _9
REMARK    5  A    between atoms: _12  and  _14
REMARK    6  A    between atoms: _14  and  _15
REMARK    7  A    between atoms: _14  and  _17
REMARK    8  A    between atoms: _20  and  _22
REMARK    9  A    between atoms: _22  and  _23
REMARK   10  A    between atoms: _22  and  _25
REMARK   11  A    between atoms: _25  and  _26
REMARK   12  A    between atoms: _31  and  _33
REMARK   13  A    between atoms: _33  and  _34
REMARK   14  A    between atoms: _33  and  _36
REMARK   15  A    between atoms: _36  and  _37
REMARK   16  A    between atoms: _40  and  _42
REMARK   17  A    between atoms: _42  and  _43
REMARK   18  A    between atoms: _42  and  _45
REMARK   19  A    between atoms: _45  and  _46
REMARK   20  A    between atoms: _49  and  _51
REMARK   21  A    between atoms: _51  and  _52
REMARK   22  A    between atoms: _51  and  _54
REMARK   23  A    between atoms: _54  and  _55
REMARK   24  A    between atoms: _60  and  _62
REMARK   25  A    between atoms: _62  and  _63
REMARK   26  A    between atoms: _62  and  _65
REMARK   27  A    between atoms: _65  and  _66
REMARK   28  A    between atoms: _66  and  _67
REMARK   29  A    between atoms: _67  and  _68
REMARK   30  A    between atoms: _68  and  _69
REMARK   31  A    between atoms: _73  and  _75
REMARK   32  A    between atoms: _75  and  _76
REMARK   33  A    between atoms: _75  and  _78
REMARK   34  A    between atoms: _78  and  _79
REMARK   35  A    between atoms: _84  and  _85
REMARK   36  A    between atoms: _87  and  _89
REMARK   37  A    between atoms: _89  and  _90
REMARK   38  A    between atoms: _89  and  _92
REMARK   39  A    between atoms: _92  and  _93
REMARK   40  A    between atoms: _98  and  _99
REMARK   41  A    between atoms: _101  and  _103
REMARK   42  A    between atoms: _103  and  _104
REMARK   43  A    between atoms: _107  and  _109
REMARK   44  A    between atoms: _109  and  _110
REMARK   45  A    between atoms: _109  and  _112
REMARK   46  A    between atoms: _112  and  _113
REMARK   47  A    between atoms: _113  and  _114
REMARK   48  A    between atoms: _114  and  _115
REMARK   49  A    between atoms: _115  and  _116
REMARK   50  A    between atoms: _120  and  _122
REMARK   51  A    between atoms: _122  and  _123
REMARK   52  A    between atoms: _122  and  _125
REMARK   53  A    between atoms: _125  and  _126
REMARK   54  A    between atoms: _129  and  _131
REMARK   55  A    between atoms: _131  and  _132
REMARK   56  A    between atoms: _131  and  _134
REMARK   57  A    between atoms: _134  and  _135
REMARK   58  A    between atoms: _137  and  _139
REMARK   59  A    between atoms: _139  and  _140
REMARK   60  A    between atoms: _139  and  _142
REMARK   61  A    between atoms: _142  and  _143
REMARK   62  A    between atoms: _143  and  _253
REMARK   63  A    between atoms: _144  and  _146
REMARK   64  A    between atoms: _146  and  _147
REMARK   65  A    between atoms: _146  and  _149
REMARK   66  A    between atoms: _149  and  _150
REMARK   67  A    between atoms: _150  and  _151
REMARK   68  A    between atoms: _156  and  _158
REMARK   69  A    between atoms: _158  and  _159
REMARK   70  A    between atoms: _161  and  _163
REMARK   71  A    between atoms: _163  and  _164
REMARK   72  A    between atoms: _163  and  _166
REMARK   73  A    between atoms: _166  and  _167
REMARK   74  A    between atoms: _170  and  _172
REMARK   75  A    between atoms: _172  and  _173
REMARK   76  A    between atoms: _172  and  _175
REMARK   77  A    between atoms: _175  and  _176
REMARK   78  A    between atoms: _178  and  _180
REMARK   79  A    between atoms: _180  and  _181
REMARK   80  A    between atoms: _183  and  _185
REMARK   81  A    between atoms: _185  and  _186
REMARK   82  A    between atoms: _188  and  _190
REMARK   83  A    between atoms: _190  and  _191
REMARK   84  A    between atoms: _190  and  _193
REMARK   85  A    between atoms: _193  and  _194
REMARK   86  A    between atoms: _197  and  _199
REMARK   87  A    between atoms: _199  and  _200
REMARK   88  A    between atoms: _199  and  _202
REMARK   89  A    between atoms: _205  and  _207
REMARK   90  A    between atoms: _207  and  _208
REMARK   91  A    between atoms: _207  and  _210
REMARK   92  A    between atoms: _210  and  _211
REMARK   93  A    between atoms: _213  and  _215
REMARK   94  A    between atoms: _215  and  _216
REMARK   95  A    between atoms: _215  and  _218
REMARK   96  A    between atoms: _218  and  _219
REMARK   97  A    between atoms: _229  and  _231
REMARK   98  A    between atoms: _231  and  _232
REMARK   99  A    between atoms: _234  and  _236
REMARK  100  A    between atoms: _236  and  _237
REMARK  101  A    between atoms: _236  and  _239
REMARK  102  A    between atoms: _239  and  _240
REMARK  103  A    between atoms: _242  and  _244
REMARK  104  A    between atoms: _244  and  _245
REMARK  105  A    between atoms: _247  and  _249
REMARK  106  A    between atoms: _249  and  _250
REMARK  107  A    between atoms: _249  and  _252
REMARK  108  A    between atoms: _252  and  _253
REMARK  109  A    between atoms: _254  and  _256
REMARK  110  A    between atoms: _256  and  _257
REMARK  111  A    between atoms: _260  and  _262
REMARK  112  A    between atoms: _262  and  _263
REMARK  113  A    between atoms: _262  and  _265
REMARK  114  A    between atoms: _265  and  _266
REMARK  115  A    between atoms: _266  and  _267
REMARK  116  A    between atoms: _272  and  _274
REMARK  117  A    between atoms: _274  and  _275
REMARK  118  A    between atoms: _274  and  _277
REMARK  119  A    between atoms: _277  and  _278
REMARK  120  A    between atoms: _278  and  _279
REMARK  121  A    between atoms: _279  and  _280
REMARK  122  A    between atoms: _280  and  _281
REMARK  123  A    between atoms: _286  and  _287
REMARK  124  A    between atoms: _292  and  _294
REMARK  125  A    between atoms: _294  and  _295
REMARK  126  A    between atoms: _297  and  _299
REMARK  127  A    between atoms: _299  and  _300
REMARK  128  A    between atoms: _299  and  _302
REMARK  129  A    between atoms: _305  and  _307
REMARK  130  A    between atoms: _307  and  _308
REMARK  131  A    between atoms: _307  and  _310
REMARK  132  A    between atoms: _310  and  _311
REMARK  133  A    between atoms: _316  and  _317
REMARK                            x       y       z     vdW  Elec       q    Type
REMARK                         _______ _______ _______ _____ _____    ______ ____
ROOT
ATOM      1  O   HOH     1       1.577  11.574  14.156  0.00  0.00    +0.000 OA
ENDROOT
TORSDOF 0
REMARK  Name = ../refined-set-2016/4abe/4abe_pocket.pdb
REMARK  133 active torsions:
REMARK  status: ('A' for Active; 'I' for Inactive)
REMARK    1  A    between atoms: _1  and  _5
REMARK    2  A    between atoms: _5  and  _6
REMARK    3  A    between atoms: _5  and  _8
REMARK    4  A    between atoms: _8  and  _9
REMARK    5  A    between atoms: _12  and  _14
REMARK    6  A    between atoms: _14  and  _15
REMARK    7  A    between atoms: _14  and  _17
REMARK    8  A    between atoms: _20  and  _22
REMARK    9  A    between atoms: _22  and  _23
REMARK   10  A    between atoms: _22  and  _25
REMARK   11  A    between atoms: _25  and  _26
REMARK   12  A    between atoms: _31  and  _33
REMARK   13  A    between atoms: _33  and  _34
REMARK   14  A    between atoms: _33  and  _36
REMARK   15  A    between atoms: _36  and  _37
REMARK   16  A    between atoms: _40  and  _42
REMARK   17  A    between atoms: _42  and  _43
REMARK   18  A    between atoms: _42  and  _45
REMARK   19  A    between atoms: _45  and  _46
REMARK   20  A    between atoms: _49  and  _51
REMARK   21  A    between atoms: _51  and  _52
REMARK   22  A    between atoms: _51  and  _54
REMARK   23  A    between atoms: _54  and  _55
REMARK   24  A    between atoms: _60  and  _62
REMARK   25  A    between atoms: _62  and  _63
REMARK   26  A    between atoms: _62  and  _65
REMARK   27  A    between atoms: _65  and  _66
REMARK   28  A    between atoms: _66  and  _67
REMARK   29  A    between atoms: _67  and  _68
REMARK   30  A    between atoms: _68  and  _69
REMARK   31  A    between atoms: _73  and  _75
REMARK   32  A    between atoms: _75  and  _76
REMARK   33  A    between atoms: _75  and  _78
REMARK   34  A    between atoms: _78  and  _79
REMARK   35  A    between atoms: _84  and  _85
REMARK   36  A    between atoms: _87  and  _89
REMARK   37  A    between atoms: _89  and  _90
REMARK   38  A    between atoms: _89  and  _92
REMARK   39  A    between atoms: _92  and  _93
REMARK   40  A    between atoms: _98  and  _99
REMARK   41  A    between atoms: _101  and  _103
REMARK   42  A    between atoms: _103  and  _104
REMARK   43  A    between atoms: _107  and  _109
REMARK   44  A    between atoms: _109  and  _110
REMARK   45  A    between atoms: _109  and  _112
REMARK   46  A    between atoms: _112  and  _113
REMARK   47  A    between atoms: _113  and  _114
REMARK   48  A    between atoms: _114  and  _115
REMARK   49  A    between atoms: _115  and  _116
REMARK   50  A    between atoms: _120  and  _122
REMARK   51  A    between atoms: _122  and  _123
REMARK   52  A    between atoms: _122  and  _125
REMARK   53  A    between atoms: _125  and  _126
REMARK   54  A    between atoms: _129  and  _131
REMARK   55  A    between atoms: _131  and  _132
REMARK   56  A    between atoms: _131  and  _134
REMARK   57  A    between atoms: _134  and  _135
REMARK   58  A    between atoms: _137  and  _139
REMARK   59  A    between atoms: _139  and  _140
REMARK   60  A    between atoms: _139  and  _142
REMARK   61  A    between atoms: _142  and  _143
REMARK   62  A    between atoms: _143  and  _253
REMARK   63  A    between atoms: _144  and  _146
REMARK   64  A    between atoms: _146  and  _147
REMARK   65  A    between atoms: _146  and  _149
REMARK   66  A    between atoms: _149  and  _150
REMARK   67  A    between atoms: _150  and  _151
REMARK   68  A    between atoms: _156  and  _158
REMARK   69  A    between atoms: _158  and  _159
REMARK   70  A    between atoms: _161  and  _163
REMARK   71  A    between atoms: _163  and  _164
REMARK   72  A    between atoms: _163  and  _166
REMARK   73  A    between atoms: _166  and  _167
REMARK   74  A    between atoms: _170  and  _172
REMARK   75  A    between atoms: _172  and  _173
REMARK   76  A    between atoms: _172  and  _175
REMARK   77  A    between atoms: _175  and  _176
REMARK   78  A    between atoms: _178  and  _180
REMARK   79  A    between atoms: _180  and  _181
REMARK   80  A    between atoms: _183  and  _185
REMARK   81  A    between atoms: _185  and  _186
REMARK   82  A    between atoms: _188  and  _190
REMARK   83  A    between atoms: _190  and  _191
REMARK   84  A    between atoms: _190  and  _193
REMARK   85  A    between atoms: _193  and  _194
REMARK   86  A    between atoms: _197  and  _199
REMARK   87  A    between atoms: _199  and  _200
REMARK   88  A    between atoms: _199  and  _202
REMARK   89  A    between atoms: _205  and  _207
REMARK   90  A    between atoms: _207  and  _208
REMARK   91  A    between atoms: _207  and  _210
REMARK   92  A    between atoms: _210  and  _211
REMARK   93  A    between atoms: _213  and  _215
REMARK   94  A    between atoms: _215  and  _216
REMARK   95  A    between atoms: _215  and  _218
REMARK   96  A    between atoms: _218  and  _219
REMARK   97  A    between atoms: _229  and  _231
REMARK   98  A    between atoms: _231  and  _232
REMARK   99  A    between atoms: _234  and  _236
REMARK  100  A    between atoms: _236  and  _237
REMARK  101  A    between atoms: _236  and  _239
REMARK  102  A    between atoms: _239  and  _240
REMARK  103  A    between atoms: _242  and  _244
REMARK  104  A    between atoms: _244  and  _245
REMARK  105  A    between atoms: _247  and  _249
REMARK  106  A    between atoms: _249  and  _250
REMARK  107  A    between atoms: _249  and  _252
REMARK  108  A    between atoms: _252  and  _253
REMARK  109  A    between atoms: _254  and  _256
REMARK  110  A    between atoms: _256  and  _257
REMARK  111  A    between atoms: _260  and  _262
REMARK  112  A    between atoms: _262  and  _263
REMARK  113  A    between atoms: _262  and  _265
REMARK  114  A    between atoms: _265  and  _266
REMARK  115  A    between atoms: _266  and  _267
REMARK  116  A    between atoms: _272  and  _274
REMARK  117  A    between atoms: _274  and  _275
REMARK  118  A    between atoms: _274  and  _277
REMARK  119  A    between atoms: _277  and  _278
REMARK  120  A    between atoms: _278  and  _279
REMARK  121  A    between atoms: _279  and  _280
REMARK  122  A    between atoms: _280  and  _281
REMARK  123  A    between atoms: _286  and  _287
REMARK  124  A    between atoms: _292  and  _294
REMARK  125  A    between atoms: _294  and  _295
REMARK  126  A    between atoms: _297  and  _299
REMARK  127  A    between atoms: _299  and  _300
REMARK  128  A    between atoms: _299  and  _302
REMARK  129  A    between atoms: _305  and  _307
REMARK  130  A    between atoms: _307  and  _308
REMARK  131  A    between atoms: _307  and  _310
REMARK  132  A    between atoms: _310  and  _311
REMARK  133  A    between atoms: _316  and  _317
REMARK                            x       y       z     vdW  Elec       q    Type
REMARK                         _______ _______ _______ _____ _____    ______ ____
ROOT
ATOM      1  O   HOH     1       0.290  10.951  16.627  0.00  0.00    +0.000 OA
ENDROOT
TORSDOF 0
REMARK  Name = ../refined-set-2016/4abe/4abe_pocket.pdb
REMARK  133 active torsions:
REMARK  status: ('A' for Active; 'I' for Inactive)
REMARK    1  A    between atoms: _1  and  _5
REMARK    2  A    between atoms: _5  and  _6
REMARK    3  A    between atoms: _5  and  _8
REMARK    4  A    between atoms: _8  and  _9
REMARK    5  A    between atoms: _12  and  _14
REMARK    6  A    between atoms: _14  and  _15
REMARK    7  A    between atoms: _14  and  _17
REMARK    8  A    between atoms: _20  and  _22
REMARK    9  A    between atoms: _22  and  _23
REMARK   10  A    between atoms: _22  and  _25
REMARK   11  A    between atoms: _25  and  _26
REMARK   12  A    between atoms: _31  and  _33
REMARK   13  A    between atoms: _33  and  _34
REMARK   14  A    between atoms: _33  and  _36
REMARK   15  A    between atoms: _36  and  _37
REMARK   16  A    between atoms: _40  and  _42
REMARK   17  A    between atoms: _42  and  _43
REMARK   18  A    between atoms: _42  and  _45
REMARK   19  A    between atoms: _45  and  _46
REMARK   20  A    between atoms: _49  and  _51
REMARK   21  A    between atoms: _51  and  _52
REMARK   22  A    between atoms: _51  and  _54
REMARK   23  A    between atoms: _54  and  _55
REMARK   24  A    between atoms: _60  and  _62
REMARK   25  A    between atoms: _62  and  _63
REMARK   26  A    between atoms: _62  and  _65
REMARK   27  A    between atoms: _65  and  _66
REMARK   28  A    between atoms: _66  and  _67
REMARK   29  A    between atoms: _67  and  _68
REMARK   30  A    between atoms: _68  and  _69
REMARK   31  A    between atoms: _73  and  _75
REMARK   32  A    between atoms: _75  and  _76
REMARK   33  A    between atoms: _75  and  _78
REMARK   34  A    between atoms: _78  and  _79
REMARK   35  A    between atoms: _84  and  _85
REMARK   36  A    between atoms: _87  and  _89
REMARK   37  A    between atoms: _89  and  _90
REMARK   38  A    between atoms: _89  and  _92
REMARK   39  A    between atoms: _92  and  _93
REMARK   40  A    between atoms: _98  and  _99
REMARK   41  A    between atoms: _101  and  _103
REMARK   42  A    between atoms: _103  and  _104
REMARK   43  A    between atoms: _107  and  _109
REMARK   44  A    between atoms: _109  and  _110
REMARK   45  A    between atoms: _109  and  _112
REMARK   46  A    between atoms: _112  and  _113
REMARK   47  A    between atoms: _113  and  _114
REMARK   48  A    between atoms: _114  and  _115
REMARK   49  A    between atoms: _115  and  _116
REMARK   50  A    between atoms: _120  and  _122
REMARK   51  A    between atoms: _122  and  _123
REMARK   52  A    between atoms: _122  and  _125
REMARK   53  A    between atoms: _125  and  _126
REMARK   54  A    between atoms: _129  and  _131
REMARK   55  A    between atoms: _131  and  _132
REMARK   56  A    between atoms: _131  and  _134
REMARK   57  A    between atoms: _134  and  _135
REMARK   58  A    between atoms: _137  and  _139
REMARK   59  A    between atoms: _139  and  _140
REMARK   60  A    between atoms: _139  and  _142
REMARK   61  A    between atoms: _142  and  _143
REMARK   62  A    between atoms: _143  and  _253
REMARK   63  A    between atoms: _144  and  _146
REMARK   64  A    between atoms: _146  and  _147
REMARK   65  A    between atoms: _146  and  _149
REMARK   66  A    between atoms: _149  and  _150
REMARK   67  A    between atoms: _150  and  _151
REMARK   68  A    between atoms: _156  and  _158
REMARK   69  A    between atoms: _158  and  _159
REMARK   70  A    between atoms: _161  and  _163
REMARK   71  A    between atoms: _163  and  _164
REMARK   72  A    between atoms: _163  and  _166
REMARK   73  A    between atoms: _166  and  _167
REMARK   74  A    between atoms: _170  and  _172
REMARK   75  A    between atoms: _172  and  _173
REMARK   76  A    between atoms: _172  and  _175
REMARK   77  A    between atoms: _175  and  _176
REMARK   78  A    between atoms: _178  and  _180
REMARK   79  A    between atoms: _180  and  _181
REMARK   80  A    between atoms: _183  and  _185
REMARK   81  A    between atoms: _185  and  _186
REMARK   82  A    between atoms: _188  and  _190
REMARK   83  A    between atoms: _190  and  _191
REMARK   84  A    between atoms: _190  and  _193
REMARK   85  A    between atoms: _193  and  _194
REMARK   86  A    between atoms: _197  and  _199
REMARK   87  A    between atoms: _199  and  _200
REMARK   88  A    between atoms: _199  and  _202
REMARK   89  A    between atoms: _205  and  _207
REMARK   90  A    between atoms: _207  and  _208
REMARK   91  A    between atoms: _207  and  _210
REMARK   92  A    between atoms: _210  and  _211
REMARK   93  A    between atoms: _213  and  _215
REMARK   94  A    between atoms: _215  and  _216
REMARK   95  A    between atoms: _215  and  _218
REMARK   96  A    between atoms: _218  and  _219
REMARK   97  A    between atoms: _229  and  _231
REMARK   98  A    between atoms: _231  and  _232
REMARK   99  A    between atoms: _234  and  _236
REMARK  100  A    between atoms: _236  and  _237
REMARK  101  A    between atoms: _236  and  _239
REMARK  102  A    between atoms: _239  and  _240
REMARK  103  A    between atoms: _242  and  _244
REMARK  104  A    between atoms: _244  and  _245
REMARK  105  A    between atoms: _247  and  _249
REMARK  106  A    between atoms: _249  and  _250
REMARK  107  A    between atoms: _249  and  _252
REMARK  108  A    between atoms: _252  and  _253
REMARK  109  A    between atoms: _254  and  _256
REMARK  110  A    between atoms: _256  and  _257
REMARK  111  A    between atoms: _260  and  _262
REMARK  112  A    between atoms: _262  and  _263
REMARK  113  A    between atoms: _262  and  _265
REMARK  114  A    between atoms: _265  and  _266
REMARK  115  A    between atoms: _266  and  _267
REMARK  116  A    between atoms: _272  and  _274
REMARK  117  A    between atoms: _274  and  _275
REMARK  118  A    between atoms: _274  and  _277
REMARK  119  A    between atoms: _277  and  _278
REMARK  120  A    between atoms: _278  and  _279
REMARK  121  A    between atoms: _279  and  _280
REMARK  122  A    between atoms: _280  and  _281
REMARK  123  A    between atoms: _286  and  _287
REMARK  124  A    between atoms: _292  and  _294
REMARK  125  A    between atoms: _294  and  _295
REMARK  126  A    between atoms: _297  and  _299
REMARK  127  A    between atoms: _299  and  _300
REMARK  128  A    between atoms: _299  and  _302
REMARK  129  A    between atoms: _305  and  _307
REMARK  130  A    between atoms: _307  and  _308
REMARK  131  A    between atoms: _307  and  _310
REMARK  132  A    between atoms: _310  and  _311
REMARK  133  A    between atoms: _316  and  _317
REMARK                            x       y       z     vdW  Elec       q    Type
REMARK                         _______ _______ _______ _____ _____    ______ ____
ROOT
ATOM      1  O   HOH     1      -2.532  12.267  17.700  0.00  0.00    +0.000 OA
ENDROOT
TORSDOF 0
REMARK  Name = ../refined-set-2016/4abe/4abe_pocket.pdb
REMARK  133 active torsions:
REMARK  status: ('A' for Active; 'I' for Inactive)
REMARK    1  A    between atoms: _1  and  _5
REMARK    2  A    between atoms: _5  and  _6
REMARK    3  A    between atoms: _5  and  _8
REMARK    4  A    between atoms: _8  and  _9
REMARK    5  A    between atoms: _12  and  _14
REMARK    6  A    between atoms: _14  and  _15
REMARK    7  A    between atoms: _14  and  _17
REMARK    8  A    between atoms: _20  and  _22
REMARK    9  A    between atoms: _22  and  _23
REMARK   10  A    between atoms: _22  and  _25
REMARK   11  A    between atoms: _25  and  _26
REMARK   12  A    between atoms: _31  and  _33
REMARK   13  A    between atoms: _33  and  _34
REMARK   14  A    between atoms: _33  and  _36
REMARK   15  A    between atoms: _36  and  _37
REMARK   16  A    between atoms: _40  and  _42
REMARK   17  A    between atoms: _42  and  _43
REMARK   18  A    between atoms: _42  and  _45
REMARK   19  A    between atoms: _45  and  _46
REMARK   20  A    between atoms: _49  and  _51
REMARK   21  A    between atoms: _51  and  _52
REMARK   22  A    between atoms: _51  and  _54
REMARK   23  A    between atoms: _54  and  _55
REMARK   24  A    between atoms: _60  and  _62
REMARK   25  A    between atoms: _62  and  _63
REMARK   26  A    between atoms: _62  and  _65
REMARK   27  A    between atoms: _65  and  _66
REMARK   28  A    between atoms: _66  and  _67
REMARK   29  A    between atoms: _67  and  _68
REMARK   30  A    between atoms: _68  and  _69
REMARK   31  A    between atoms: _73  and  _75
REMARK   32  A    between atoms: _75  and  _76
REMARK   33  A    between atoms: _75  and  _78
REMARK   34  A    between atoms: _78  and  _79
REMARK   35  A    between atoms: _84  and  _85
REMARK   36  A    between atoms: _87  and  _89
REMARK   37  A    between atoms: _89  and  _90
REMARK   38  A    between atoms: _89  and  _92
REMARK   39  A    between atoms: _92  and  _93
REMARK   40  A    between atoms: _98  and  _99
REMARK   41  A    between atoms: _101  and  _103
REMARK   42  A    between atoms: _103  and  _104
REMARK   43  A    between atoms: _107  and  _109
REMARK   44  A    between atoms: _109  and  _110
REMARK   45  A    between atoms: _109  and  _112
REMARK   46  A    between atoms: _112  and  _113
REMARK   47  A    between atoms: _113  and  _114
REMARK   48  A    between atoms: _114  and  _115
REMARK   49  A    between atoms: _115  and  _116
REMARK   50  A    between atoms: _120  and  _122
REMARK   51  A    between atoms: _122  and  _123
REMARK   52  A    between atoms: _122  and  _125
REMARK   53  A    between atoms: _125  and  _126
REMARK   54  A    between atoms: _129  and  _131
REMARK   55  A    between atoms: _131  and  _132
REMARK   56  A    between atoms: _131  and  _134
REMARK   57  A    between atoms: _134  and  _135
REMARK   58  A    between atoms: _137  and  _139
REMARK   59  A    between atoms: _139  and  _140
REMARK   60  A    between atoms: _139  and  _142
REMARK   61  A    between atoms: _142  and  _143
REMARK   62  A    between atoms: _143  and  _253
REMARK   63  A    between atoms: _144  and  _146
REMARK   64  A    between atoms: _146  and  _147
REMARK   65  A    between atoms: _146  and  _149
REMARK   66  A    between atoms: _149  and  _150
REMARK   67  A    between atoms: _150  and  _151
REMARK   68  A    between atoms: _156  and  _158
REMARK   69  A    between atoms: _158  and  _159
REMARK   70  A    between atoms: _161  and  _163
REMARK   71  A    between atoms: _163  and  _164
REMARK   72  A    between atoms: _163  and  _166
REMARK   73  A    between atoms: _166  and  _167
REMARK   74  A    between atoms: _170  and  _172
REMARK   75  A    between atoms: _172  and  _173
REMARK   76  A    between atoms: _172  and  _175
REMARK   77  A    between atoms: _175  and  _176
REMARK   78  A    between atoms: _178  and  _180
REMARK   79  A    between atoms: _180  and  _181
REMARK   80  A    between atoms: _183  and  _185
REMARK   81  A    between atoms: _185  and  _186
REMARK   82  A    between atoms: _188  and  _190
REMARK   83  A    between atoms: _190  and  _191
REMARK   84  A    between atoms: _190  and  _193
REMARK   85  A    between atoms: _193  and  _194
REMARK   86  A    between atoms: _197  and  _199
REMARK   87  A    between atoms: _199  and  _200
REMARK   88  A    between atoms: _199  and  _202
REMARK   89  A    between atoms: _205  and  _207
REMARK   90  A    between atoms: _207  and  _208
REMARK   91  A    between atoms: _207  and  _210
REMARK   92  A    between atoms: _210  and  _211
REMARK   93  A    between atoms: _213  and  _215
REMARK   94  A    between atoms: _215  and  _216
REMARK   95  A    between atoms: _215  and  _218
REMARK   96  A    between atoms: _218  and  _219
REMARK   97  A    between atoms: _229  and  _231
REMARK   98  A    between atoms: _231  and  _232
REMARK   99  A    between atoms: _234  and  _236
REMARK  100  A    between atoms: _236  and  _237
REMARK  101  A    between atoms: _236  and  _239
REMARK  102  A    between atoms: _239  and  _240
REMARK  103  A    between atoms: _242  and  _244
REMARK  104  A    between atoms: _244  and  _245
REMARK  105  A    between atoms: _247  and  _249
REMARK  106  A    between atoms: _249  and  _250
REMARK  107  A    between atoms: _249  and  _252
REMARK  108  A    between atoms: _252  and  _253
REMARK  109  A    between atoms: _254  and  _256
REMARK  110  A    between atoms: _256  and  _257
REMARK  111  A    between atoms: _260  and  _262
REMARK  112  A    between atoms: _262  and  _263
REMARK  113  A    between atoms: _262  and  _265
REMARK  114  A    between atoms: _265  and  _266
REMARK  115  A    between atoms: _266  and  _267
REMARK  116  A    between atoms: _272  and  _274
REMARK  117  A    between atoms: _274  and  _275
REMARK  118  A    between atoms: _274  and  _277
REMARK  119  A    between atoms: _277  and  _278
REMARK  120  A    between atoms: _278  and  _279
REMARK  121  A    between atoms: _279  and  _280
REMARK  122  A    between atoms: _280  and  _281
REMARK  123  A    between atoms: _286  and  _287
REMARK  124  A    between atoms: _292  and  _294
REMARK  125  A    between atoms: _294  and  _295
REMARK  126  A    between atoms: _297  and  _299
REMARK  127  A    between atoms: _299  and  _300
REMARK  128  A    between atoms: _299  and  _302
REMARK  129  A    between atoms: _305  and  _307
REMARK  130  A    between atoms: _307  and  _308
REMARK  131  A    between atoms: _307  and  _310
REMARK  132  A    between atoms: _310  and  _311
REMARK  133  A    between atoms: _316  and  _317
REMARK                            x       y       z     vdW  Elec       q    Type
REMARK                         _______ _______ _______ _____ _____    ______ ____
ROOT
ATOM      1  O   HOH     1       1.340   9.094  18.311  0.00  0.00    +0.000 OA
ENDROOT
TORSDOF 0
REMARK  Name = ../refined-set-2016/4abe/4abe_pocket.pdb
REMARK  133 active torsions:
REMARK  status: ('A' for Active; 'I' for Inactive)
REMARK    1  A    between atoms: _1  and  _5
REMARK    2  A    between atoms: _5  and  _6
REMARK    3  A    between atoms: _5  and  _8
REMARK    4  A    between atoms: _8  and  _9
REMARK    5  A    between atoms: _12  and  _14
REMARK    6  A    between atoms: _14  and  _15
REMARK    7  A    between atoms: _14  and  _17
REMARK    8  A    between atoms: _20  and  _22
REMARK    9  A    between atoms: _22  and  _23
REMARK   10  A    between atoms: _22  and  _25
REMARK   11  A    between atoms: _25  and  _26
REMARK   12  A    between atoms: _31  and  _33
REMARK   13  A    between atoms: _33  and  _34
REMARK   14  A    between atoms: _33  and  _36
REMARK   15  A    between atoms: _36  and  _37
REMARK   16  A    between atoms: _40  and  _42
REMARK   17  A    between atoms: _42  and  _43
REMARK   18  A    between atoms: _42  and  _45
REMARK   19  A    between atoms: _45  and  _46
REMARK   20  A    between atoms: _49  and  _51
REMARK   21  A    between atoms: _51  and  _52
REMARK   22  A    between atoms: _51  and  _54
REMARK   23  A    between atoms: _54  and  _55
REMARK   24  A    between atoms: _60  and  _62
REMARK   25  A    between atoms: _62  and  _63
REMARK   26  A    between atoms: _62  and  _65
REMARK   27  A    between atoms: _65  and  _66
REMARK   28  A    between atoms: _66  and  _67
REMARK   29  A    between atoms: _67  and  _68
REMARK   30  A    between atoms: _68  and  _69
REMARK   31  A    between atoms: _73  and  _75
REMARK   32  A    between atoms: _75  and  _76
REMARK   33  A    between atoms: _75  and  _78
REMARK   34  A    between atoms: _78  and  _79
REMARK   35  A    between atoms: _84  and  _85
REMARK   36  A    between atoms: _87  and  _89
REMARK   37  A    between atoms: _89  and  _90
REMARK   38  A    between atoms: _89  and  _92
REMARK   39  A    between atoms: _92  and  _93
REMARK   40  A    between atoms: _98  and  _99
REMARK   41  A    between atoms: _101  and  _103
REMARK   42  A    between atoms: _103  and  _104
REMARK   43  A    between atoms: _107  and  _109
REMARK   44  A    between atoms: _109  and  _110
REMARK   45  A    between atoms: _109  and  _112
REMARK   46  A    between atoms: _112  and  _113
REMARK   47  A    between atoms: _113  and  _114
REMARK   48  A    between atoms: _114  and  _115
REMARK   49  A    between atoms: _115  and  _116
REMARK   50  A    between atoms: _120  and  _122
REMARK   51  A    between atoms: _122  and  _123
REMARK   52  A    between atoms: _122  and  _125
REMARK   53  A    between atoms: _125  and  _126
REMARK   54  A    between atoms: _129  and  _131
REMARK   55  A    between atoms: _131  and  _132
REMARK   56  A    between atoms: _131  and  _134
REMARK   57  A    between atoms: _134  and  _135
REMARK   58  A    between atoms: _137  and  _139
REMARK   59  A    between atoms: _139  and  _140
REMARK   60  A    between atoms: _139  and  _142
REMARK   61  A    between atoms: _142  and  _143
REMARK   62  A    between atoms: _143  and  _253
REMARK   63  A    between atoms: _144  and  _146
REMARK   64  A    between atoms: _146  and  _147
REMARK   65  A    between atoms: _146  and  _149
REMARK   66  A    between atoms: _149  and  _150
REMARK   67  A    between atoms: _150  and  _151
REMARK   68  A    between atoms: _156  and  _158
REMARK   69  A    between atoms: _158  and  _159
REMARK   70  A    between atoms: _161  and  _163
REMARK   71  A    between atoms: _163  and  _164
REMARK   72  A    between atoms: _163  and  _166
REMARK   73  A    between atoms: _166  and  _167
REMARK   74  A    between atoms: _170  and  _172
REMARK   75  A    between atoms: _172  and  _173
REMARK   76  A    between atoms: _172  and  _175
REMARK   77  A    between atoms: _175  and  _176
REMARK   78  A    between atoms: _178  and  _180
REMARK   79  A    between atoms: _180  and  _181
REMARK   80  A    between atoms: _183  and  _185
REMARK   81  A    between atoms: _185  and  _186
REMARK   82  A    between atoms: _188  and  _190
REMARK   83  A    between atoms: _190  and  _191
REMARK   84  A    between atoms: _190  and  _193
REMARK   85  A    between atoms: _193  and  _194
REMARK   86  A    between atoms: _197  and  _199
REMARK   87  A    between atoms: _199  and  _200
REMARK   88  A    between atoms: _199  and  _202
REMARK   89  A    between atoms: _205  and  _207
REMARK   90  A    between atoms: _207  and  _208
REMARK   91  A    between atoms: _207  and  _210
REMARK   92  A    between atoms: _210  and  _211
REMARK   93  A    between atoms: _213  and  _215
REMARK   94  A    between atoms: _215  and  _216
REMARK   95  A    between atoms: _215  and  _218
REMARK   96  A    between atoms: _218  and  _219
REMARK   97  A    between atoms: _229  and  _231
REMARK   98  A    between atoms: _231  and  _232
REMARK   99  A    between atoms: _234  and  _236
REMARK  100  A    between atoms: _236  and  _237
REMARK  101  A    between atoms: _236  and  _239
REMARK  102  A    between atoms: _239  and  _240
REMARK  103  A    between atoms: _242  and  _244
REMARK  104  A    between atoms: _244  and  _245
REMARK  105  A    between atoms: _247  and  _249
REMARK  106  A    between atoms: _249  and  _250
REMARK  107  A    between atoms: _249  and  _252
REMARK  108  A    between atoms: _252  and  _253
REMARK  109  A    between atoms: _254  and  _256
REMARK  110  A    between atoms: _256  and  _257
REMARK  111  A    between atoms: _260  and  _262
REMARK  112  A    between atoms: _262  and  _263
REMARK  113  A    between atoms: _262  and  _265
REMARK  114  A    between atoms: _265  and  _266
REMARK  115  A    between atoms: _266  and  _267
REMARK  116  A    between atoms: _272  and  _274
REMARK  117  A    between atoms: _274  and  _275
REMARK  118  A    between atoms: _274  and  _277
REMARK  119  A    between atoms: _277  and  _278
REMARK  120  A    between atoms: _278  and  _279
REMARK  121  A    between atoms: _279  and  _280
REMARK  122  A    between atoms: _280  and  _281
REMARK  123  A    between atoms: _286  and  _287
REMARK  124  A    between atoms: _292  and  _294
REMARK  125  A    between atoms: _294  and  _295
REMARK  126  A    between atoms: _297  and  _299
REMARK  127  A    between atoms: _299  and  _300
REMARK  128  A    between atoms: _299  and  _302
REMARK  129  A    between atoms: _305  and  _307
REMARK  130  A    between atoms: _307  and  _308
REMARK  131  A    between atoms: _307  and  _310
REMARK  132  A    between atoms: _310  and  _311
REMARK  133  A    between atoms: _316  and  _317
REMARK                            x       y       z     vdW  Elec       q    Type
REMARK                         _______ _______ _______ _____ _____    ______ ____
ROOT
ATOM      1  O   HOH     1       1.185   8.371  21.068  0.00  0.00    +0.000 OA
ENDROOT
TORSDOF 0
