REMARK  Name = ../refined-set-2016/2bfr/2bfr_pocket.pdb
REMARK  159 active torsions:
REMARK  status: ('A' for Active; 'I' for Inactive)
REMARK    1  A    between atoms: _1  and  _3
REMARK    2  A    between atoms: _3  and  _4
REMARK    3  A    between atoms: _7  and  _9
REMARK    4  A    between atoms: _9  and  _10
REMARK    5  A    between atoms: _9  and  _12
REMARK    6  A    between atoms: _12  and  _13
REMARK    7  A    between atoms: _13  and  _14
REMARK    8  A    between atoms: _19  and  _21
REMARK    9  A    between atoms: _21  and  _22
REMARK   10  A    between atoms: _24  and  _26
REMARK   11  A    between atoms: _26  and  _27
REMARK   12  A    between atoms: _26  and  _29
REMARK   13  A    between atoms: _29  and  _30
REMARK   14  A    between atoms: _33  and  _35
REMARK   15  A    between atoms: _35  and  _36
REMARK   16  A    between atoms: _35  and  _38
REMARK   17  A    between atoms: _38  and  _39
REMARK   18  A    between atoms: _42  and  _44
REMARK   19  A    between atoms: _44  and  _45
REMARK   20  A    between atoms: _44  and  _47
REMARK   21  A    between atoms: _47  and  _48
REMARK   22  A    between atoms: _51  and  _53
REMARK   23  A    between atoms: _53  and  _54
REMARK   24  A    between atoms: _53  and  _56
REMARK   25  A    between atoms: _56  and  _57
REMARK   26  A    between atoms: _57  and  _58
REMARK   27  A    between atoms: _63  and  _65
REMARK   28  A    between atoms: _65  and  _66
REMARK   29  A    between atoms: _65  and  _68
REMARK   30  A    between atoms: _68  and  _69
REMARK   31  A    between atoms: _74  and  _75
REMARK   32  A    between atoms: _77  and  _79
REMARK   33  A    between atoms: _79  and  _80
REMARK   34  A    between atoms: _79  and  _82
REMARK   35  A    between atoms: _85  and  _87
REMARK   36  A    between atoms: _87  and  _88
REMARK   37  A    between atoms: _87  and  _90
REMARK   38  A    between atoms: _90  and  _91
REMARK   39  A    between atoms: _96  and  _98
REMARK   40  A    between atoms: _98  and  _99
REMARK   41  A    between atoms: _102  and  _104
REMARK   42  A    between atoms: _104  and  _105
REMARK   43  A    between atoms: _108  and  _110
REMARK   44  A    between atoms: _110  and  _111
REMARK   45  A    between atoms: _110  and  _113
REMARK   46  A    between atoms: _113  and  _114
REMARK   47  A    between atoms: _119  and  _121
REMARK   48  A    between atoms: _121  and  _122
REMARK   49  A    between atoms: _124  and  _126
REMARK   50  A    between atoms: _126  and  _127
REMARK   51  A    between atoms: _129  and  _131
REMARK   52  A    between atoms: _131  and  _132
REMARK   53  A    between atoms: _131  and  _134
REMARK   54  A    between atoms: _137  and  _139
REMARK   55  A    between atoms: _139  and  _140
REMARK   56  A    between atoms: _143  and  _145
REMARK   57  A    between atoms: _145  and  _146
REMARK   58  A    between atoms: _145  and  _148
REMARK   59  A    between atoms: _148  and  _149
REMARK   60  A    between atoms: _154  and  _155
REMARK   61  A    between atoms: _157  and  _159
REMARK   62  A    between atoms: _159  and  _160
REMARK   63  A    between atoms: _163  and  _165
REMARK   64  A    between atoms: _165  and  _166
REMARK   65  A    between atoms: _165  and  _168
REMARK   66  A    between atoms: _168  and  _169
REMARK   67  A    between atoms: _172  and  _174
REMARK   68  A    between atoms: _174  and  _175
REMARK   69  A    between atoms: _178  and  _180
REMARK   70  A    between atoms: _180  and  _181
REMARK   71  A    between atoms: _180  and  _183
REMARK   72  A    between atoms: _183  and  _184
REMARK   73  A    between atoms: _187  and  _189
REMARK   74  A    between atoms: _189  and  _190
REMARK   75  A    between atoms: _189  and  _192
REMARK   76  A    between atoms: _195  and  _197
REMARK   77  A    between atoms: _197  and  _198
REMARK   78  A    between atoms: _201  and  _202
REMARK   79  A    between atoms: _207  and  _209
REMARK   80  A    between atoms: _209  and  _210
REMARK   81  A    between atoms: _209  and  _212
REMARK   82  A    between atoms: _212  and  _213
REMARK   83  A    between atoms: _216  and  _218
REMARK   84  A    between atoms: _218  and  _219
REMARK   85  A    between atoms: _218  and  _221
REMARK   86  A    between atoms: _221  and  _222
REMARK   87  A    between atoms: _222  and  _326
REMARK   88  A    between atoms: _223  and  _225
REMARK   89  A    between atoms: _225  and  _226
REMARK   90  A    between atoms: _225  and  _228
REMARK   91  A    between atoms: _228  and  _229
REMARK   92  A    between atoms: _231  and  _233
REMARK   93  A    between atoms: _233  and  _234
REMARK   94  A    between atoms: _233  and  _236
REMARK   95  A    between atoms: _236  and  _237
REMARK   96  A    between atoms: _240  and  _242
REMARK   97  A    between atoms: _242  and  _243
REMARK   98  A    between atoms: _242  and  _245
REMARK   99  A    between atoms: _245  and  _246
REMARK  100  A    between atoms: _253  and  _254
REMARK  101  A    between atoms: _259  and  _261
REMARK  102  A    between atoms: _261  and  _262
REMARK  103  A    between atoms: _265  and  _267
REMARK  104  A    between atoms: _267  and  _268
REMARK  105  A    between atoms: _267  and  _270
REMARK  106  A    between atoms: _273  and  _275
REMARK  107  A    between atoms: _275  and  _276
REMARK  108  A    between atoms: _275  and  _278
REMARK  109  A    between atoms: _278  and  _279
REMARK  110  A    between atoms: _281  and  _283
REMARK  111  A    between atoms: _283  and  _284
REMARK  112  A    between atoms: _287  and  _289
REMARK  113  A    between atoms: _289  and  _290
REMARK  114  A    between atoms: _292  and  _294
REMARK  115  A    between atoms: _294  and  _295
REMARK  116  A    between atoms: _294  and  _297
REMARK  117  A    between atoms: _297  and  _298
REMARK  118  A    between atoms: _301  and  _303
REMARK  119  A    between atoms: _303  and  _304
REMARK  120  A    between atoms: _303  and  _306
REMARK  121  A    between atoms: _306  and  _307
REMARK  122  A    between atoms: _312  and  _313
REMARK  123  A    between atoms: _315  and  _317
REMARK  124  A    between atoms: _317  and  _318
REMARK  125  A    between atoms: _320  and  _322
REMARK  126  A    between atoms: _322  and  _323
REMARK  127  A    between atoms: _322  and  _325
REMARK  128  A    between atoms: _325  and  _326
REMARK  129  A    between atoms: _327  and  _329
REMARK  130  A    between atoms: _329  and  _330
REMARK  131  A    between atoms: _329  and  _332
REMARK  132  A    between atoms: _332  and  _333
REMARK  133  A    between atoms: _336  and  _338
REMARK  134  A    between atoms: _338  and  _339
REMARK  135  A    between atoms: _338  and  _341
REMARK  136  A    between atoms: _344  and  _346
REMARK  137  A    between atoms: _346  and  _347
REMARK  138  A    between atoms: _346  and  _349
REMARK  139  A    between atoms: _349  and  _350
REMARK  140  A    between atoms: _353  and  _355
REMARK  141  A    between atoms: _355  and  _356
REMARK  142  A    between atoms: _355  and  _358
REMARK  143  A    between atoms: _361  and  _363
REMARK  144  A    between atoms: _363  and  _364
REMARK  145  A    between atoms: _363  and  _366
REMARK  146  A    between atoms: _366  and  _367
REMARK  147  A    between atoms: _370  and  _372
REMARK  148  A    between atoms: _372  and  _373
REMARK  149  A    between atoms: _372  and  _375
REMARK  150  A    between atoms: _375  and  _376
REMARK  151  A    between atoms: _381  and  _382
REMARK  152  A    between atoms: _384  and  _386
REMARK  153  A    between atoms: _386  and  _387
REMARK  154  A    between atoms: _386  and  _389
REMARK  155  A    between atoms: _389  and  _390
REMARK  156  A    between atoms: _393  and  _395
REMARK  157  A    between atoms: _395  and  _396
REMARK  158  A    between atoms: _395  and  _398
REMARK  159  A    between atoms: _398  and  _399
REMARK                            x       y       z     vdW  Elec       q    Type
REMARK                         _______ _______ _______ _____ _____    ______ ____
ROOT
ATOM      1  CA  ILE A   5      16.203  77.005   6.214  0.00  0.00    +0.149 C 
ENDROOT
BRANCH   1   2
ATOM      2  C   ILE A   5      17.446  76.448   6.907  0.00  0.00    +0.241 C 
ATOM      3  O   ILE A   5      17.351  75.504   7.690  0.00  0.00    -0.273 OA
ATOM      4  N   THR A   6      18.606  77.038   6.639  0.00  0.00    -0.295 N 
ATOM      5  H   THR A   6      18.634  77.848   5.988  0.00  0.00    +0.150 HD
BRANCH   4   6
ATOM      6  CA  THR A   6      19.840  76.558   7.251  0.00  0.00    +0.176 C 
BRANCH   6   7
ATOM      7  C   THR A   6      19.858  76.762   8.756  0.00  0.00    +0.243 C 
ATOM      8  O   THR A   6      20.839  76.428   9.416  0.00  0.00    -0.273 OA
ATOM      9  N   GLN A   7      18.769  77.301   9.296  0.00  0.00    -0.297 N 
ATOM     10  H   GLN A   7      17.971  77.557   8.680  0.00  0.00    +0.150 HD
BRANCH   9  11
ATOM     11  CA  GLN A   7      18.665  77.543  10.733  0.00  0.00    +0.149 C 
BRANCH  11  12
ATOM     12  C   GLN A   7      17.450  76.833  11.321  0.00  0.00    +0.241 C 
ATOM     13  O   GLN A   7      17.133  76.996  12.505  0.00  0.00    -0.273 OA
ATOM     14  N   TYR A   8      16.768  76.046  10.495  0.00  0.00    -0.298 N 
ATOM     15  H   TYR A   8      17.084  75.939   9.510  0.00  0.00    +0.150 HD
BRANCH  14  16
ATOM     16  CA  TYR A   8      15.585  75.333  10.952  0.00  0.00    +0.141 C 
BRANCH  16  17
ATOM     17  C   TYR A   8      15.911  74.096  11.793  0.00  0.00    +0.227 C 
ATOM     18  O   TYR A   8      16.832  73.343  11.478  0.00  0.00    -0.286 OA
ENDBRANCH  16  17
BRANCH  16  19
ATOM     19  CB  TYR A   8      14.716  74.919   9.766  0.00  0.00    +0.054 C 
BRANCH  19  20
ATOM     20  CG  TYR A   8      13.327  74.539  10.199  0.00  0.00    -0.020 A 
ATOM     21  CD2 TYR A   8      12.364  75.518  10.453  0.00  0.00    -0.001 A 
ATOM     22  CE2 TYR A   8      11.099  75.178  10.937  0.00  0.00    +0.036 A 
ATOM     23  CZ  TYR A   8      10.795  73.843  11.171  0.00  0.00    +0.134 A 
ATOM     24  CE1 TYR A   8      11.735  72.854  10.923  0.00  0.00    +0.036 A 
ATOM     25  CD1 TYR A   8      12.992  73.206  10.437  0.00  0.00    -0.001 A 
BRANCH  23  26
ATOM     26  OH  TYR A   8       9.560  73.495  11.656  0.00  0.00    -0.506 OA
ATOM     27  HH  TYR A   8       9.012  74.311  11.777  0.00  0.00    +0.292 HD
ENDBRANCH  23  26
ENDBRANCH  19  20
ENDBRANCH  16  19
ENDBRANCH  14  16
ENDBRANCH  11  12
BRANCH  11  28
ATOM     28  CB  GLN A   7      18.551  79.045  11.010  0.00  0.00    +0.039 C 
BRANCH  28  29
ATOM     29  CG  GLN A   7      19.663  79.882  10.399  0.00  0.00    +0.087 C 
BRANCH  29  30
ATOM     30  CD  GLN A   7      19.497  81.364  10.675  0.00  0.00    +0.219 C 
ATOM     31  NE2 GLN A   7      18.464  81.715  11.434  0.00  0.00    -0.329 N 
ATOM     32 HE21 GLN A   7      17.820  80.987  11.805  0.00  0.00    +0.145 HD
ATOM     33 HE22 GLN A   7      18.299  82.717  11.657  0.00  0.00    +0.145 HD
ATOM     34  OE1 GLN A   7      20.288  82.185  10.211  0.00  0.00    -0.275 OA
ENDBRANCH  29  30
ENDBRANCH  28  29
ENDBRANCH  11  28
ENDBRANCH   9  11
ENDBRANCH   6   7
BRANCH   6  35
ATOM     35  CB  THR A   6      21.086  77.245   6.657  0.00  0.00    +0.137 C 
ATOM     36  CG2 THR A   6      21.108  77.085   5.141  0.00  0.00    +0.034 C 
BRANCH  35  37
ATOM     37  OG1 THR A   6      21.082  78.637   7.004  0.00  0.00    -0.382 OA
ATOM     38  HG1 THR A   6      20.266  79.064   6.640  0.00  0.00    +0.210 HD
ENDBRANCH  35  37
ENDBRANCH   6  35
ENDBRANCH   4   6
ENDBRANCH   1   2
BRANCH   1  41
ATOM     39  C   ASP A   4      16.456  79.272   7.017  0.00  0.00    +0.241 C 
ATOM     40  O   ASP A   4      16.606  78.872   8.174  0.00  0.00    -0.273 OA
ATOM     41  N   ILE A   5      16.265  78.444   5.992  0.00  0.00    -0.297 N 
ATOM     42  H   ILE A   5      16.160  78.825   5.030  0.00  0.00    +0.150 HD
BRANCH  39  43
ATOM     43  CA  ASP A   4      16.483  80.772   6.706  0.00  0.00    +0.160 C 
BRANCH  43  45
ATOM     44  C   GLY A   3      14.173  81.580   6.805  0.00  0.00    +0.243 C 
ATOM     45  N   ASP A   4      15.361  81.415   7.376  0.00  0.00    -0.296 N 
ATOM     46  H   ASP A   4      15.496  81.761   8.347  0.00  0.00    +0.150 HD
ATOM     47  O   GLY A   3      13.908  81.205   5.660  0.00  0.00    -0.273 OA
BRANCH  44  48
ATOM     48  CA  GLY A   3      13.142  82.276   7.666  0.00  0.00    +0.176 C 
BRANCH  48  51
ATOM     49  C   GLN A   2      10.775  82.255   8.052  0.00  0.00    +0.241 C 
ATOM     50  O   GLN A   2      10.943  82.450   9.256  0.00  0.00    -0.273 OA
ATOM     51  N   GLY A   3      11.781  82.147   7.192  0.00  0.00    -0.295 N 
ATOM     52  H   GLY A   3      11.592  81.971   6.185  0.00  0.00    +0.150 HD
BRANCH  49  53
ATOM     53  CA  GLN A   2       9.376  82.111   7.476  0.00  0.00    +0.149 C 
BRANCH  53  55
ATOM     54  C   ALA A   1       8.382  79.912   7.749  0.00  0.00    +0.238 C 
ATOM     55  N   GLN A   2       8.684  81.101   8.256  0.00  0.00    -0.297 N 
ATOM     56  H   GLN A   2       8.418  81.315   9.238  0.00  0.00    +0.150 HD
ATOM     57  O   ALA A   1       8.629  79.585   6.590  0.00  0.00    -0.274 OA
BRANCH  54  58
ATOM     58  CA  ALA A   1       7.689  78.959   8.697  0.00  0.00    +0.145 C 
ATOM     59  CB  ALA A   1       8.716  78.285   9.593  0.00  0.00    +0.028 C 
BRANCH  58  60
ATOM     60  N   ALA A   1       6.919  77.953   7.985  0.00  0.00    -0.238 NA
ATOM     61  H   ALA A   1       7.322  77.490   7.145  0.00  0.00    +0.142 HD
ENDBRANCH  58  60
ENDBRANCH  54  58
ENDBRANCH  53  55
BRANCH  53  62
ATOM     62  CB  GLN A   2       8.649  83.451   7.557  0.00  0.00    +0.039 C 
BRANCH  62  63
ATOM     63  CG  GLN A   2       9.405  84.586   6.887  0.00  0.00    +0.087 C 
BRANCH  63  64
ATOM     64  CD  GLN A   2       8.714  85.927   7.040  0.00  0.00    +0.219 C 
ATOM     65  NE2 GLN A   2       7.568  85.935   7.712  0.00  0.00    -0.329 N 
ATOM     66 HE21 GLN A   2       7.187  85.049   8.101  0.00  0.00    +0.145 HD
ATOM     67 HE22 GLN A   2       7.052  86.827   7.849  0.00  0.00    +0.145 HD
ATOM     68  OE1 GLN A   2       9.208  86.947   6.559  0.00  0.00    -0.275 OA
ENDBRANCH  63  64
ENDBRANCH  62  63
ENDBRANCH  53  62
ENDBRANCH  49  53
ENDBRANCH  48  51
ENDBRANCH  44  48
ENDBRANCH  43  45
BRANCH  43  69
ATOM     69  CB  ASP A   4      17.783  81.401   7.211  0.00  0.00    +0.143 C 
BRANCH  69  70
ATOM     70  CG  ASP A   4      19.004  80.894   6.483  0.00  0.00    +0.367 C 
ATOM     71  OD2 ASP A   4      20.108  81.387   6.792  0.00  0.00    -0.246 OA
ATOM     72  OD1 ASP A   4      18.864  80.011   5.608  0.00  0.00    -0.246 OA
ENDBRANCH  69  70
ENDBRANCH  43  69
ENDBRANCH  39  43
ENDBRANCH   1  41
BRANCH   1  73
ATOM     73  CB  ILE A   5      15.971  76.233   4.894  0.00  0.00    +0.027 C 
ATOM     74  CG2 ILE A   5      17.232  76.235   4.052  0.00  0.00    +0.002 C 
BRANCH  73  75
ATOM     75  CG1 ILE A   5      15.544  74.796   5.204  0.00  0.00    +0.002 C 
ATOM     76  CD1 ILE A   5      15.056  74.016   3.994  0.00  0.00    +0.000 C 
ENDBRANCH  73  75
ENDBRANCH   1  73
TORSDOF 31
REMARK  Name = ../refined-set-2016/2bfr/2bfr_pocket.pdb
REMARK  159 active torsions:
REMARK  status: ('A' for Active; 'I' for Inactive)
REMARK    1  A    between atoms: _1  and  _3
REMARK    2  A    between atoms: _3  and  _4
REMARK    3  A    between atoms: _7  and  _9
REMARK    4  A    between atoms: _9  and  _10
REMARK    5  A    between atoms: _9  and  _12
REMARK    6  A    between atoms: _12  and  _13
REMARK    7  A    between atoms: _13  and  _14
REMARK    8  A    between atoms: _19  and  _21
REMARK    9  A    between atoms: _21  and  _22
REMARK   10  A    between atoms: _24  and  _26
REMARK   11  A    between atoms: _26  and  _27
REMARK   12  A    between atoms: _26  and  _29
REMARK   13  A    between atoms: _29  and  _30
REMARK   14  A    between atoms: _33  and  _35
REMARK   15  A    between atoms: _35  and  _36
REMARK   16  A    between atoms: _35  and  _38
REMARK   17  A    between atoms: _38  and  _39
REMARK   18  A    between atoms: _42  and  _44
REMARK   19  A    between atoms: _44  and  _45
REMARK   20  A    between atoms: _44  and  _47
REMARK   21  A    between atoms: _47  and  _48
REMARK   22  A    between atoms: _51  and  _53
REMARK   23  A    between atoms: _53  and  _54
REMARK   24  A    between atoms: _53  and  _56
REMARK   25  A    between atoms: _56  and  _57
REMARK   26  A    between atoms: _57  and  _58
REMARK   27  A    between atoms: _63  and  _65
REMARK   28  A    between atoms: _65  and  _66
REMARK   29  A    between atoms: _65  and  _68
REMARK   30  A    between atoms: _68  and  _69
REMARK   31  A    between atoms: _74  and  _75
REMARK   32  A    between atoms: _77  and  _79
REMARK   33  A    between atoms: _79  and  _80
REMARK   34  A    between atoms: _79  and  _82
REMARK   35  A    between atoms: _85  and  _87
REMARK   36  A    between atoms: _87  and  _88
REMARK   37  A    between atoms: _87  and  _90
REMARK   38  A    between atoms: _90  and  _91
REMARK   39  A    between atoms: _96  and  _98
REMARK   40  A    between atoms: _98  and  _99
REMARK   41  A    between atoms: _102  and  _104
REMARK   42  A    between atoms: _104  and  _105
REMARK   43  A    between atoms: _108  and  _110
REMARK   44  A    between atoms: _110  and  _111
REMARK   45  A    between atoms: _110  and  _113
REMARK   46  A    between atoms: _113  and  _114
REMARK   47  A    between atoms: _119  and  _121
REMARK   48  A    between atoms: _121  and  _122
REMARK   49  A    between atoms: _124  and  _126
REMARK   50  A    between atoms: _126  and  _127
REMARK   51  A    between atoms: _129  and  _131
REMARK   52  A    between atoms: _131  and  _132
REMARK   53  A    between atoms: _131  and  _134
REMARK   54  A    between atoms: _137  and  _139
REMARK   55  A    between atoms: _139  and  _140
REMARK   56  A    between atoms: _143  and  _145
REMARK   57  A    between atoms: _145  and  _146
REMARK   58  A    between atoms: _145  and  _148
REMARK   59  A    between atoms: _148  and  _149
REMARK   60  A    between atoms: _154  and  _155
REMARK   61  A    between atoms: _157  and  _159
REMARK   62  A    between atoms: _159  and  _160
REMARK   63  A    between atoms: _163  and  _165
REMARK   64  A    between atoms: _165  and  _166
REMARK   65  A    between atoms: _165  and  _168
REMARK   66  A    between atoms: _168  and  _169
REMARK   67  A    between atoms: _172  and  _174
REMARK   68  A    between atoms: _174  and  _175
REMARK   69  A    between atoms: _178  and  _180
REMARK   70  A    between atoms: _180  and  _181
REMARK   71  A    between atoms: _180  and  _183
REMARK   72  A    between atoms: _183  and  _184
REMARK   73  A    between atoms: _187  and  _189
REMARK   74  A    between atoms: _189  and  _190
REMARK   75  A    between atoms: _189  and  _192
REMARK   76  A    between atoms: _195  and  _197
REMARK   77  A    between atoms: _197  and  _198
REMARK   78  A    between atoms: _201  and  _202
REMARK   79  A    between atoms: _207  and  _209
REMARK   80  A    between atoms: _209  and  _210
REMARK   81  A    between atoms: _209  and  _212
REMARK   82  A    between atoms: _212  and  _213
REMARK   83  A    between atoms: _216  and  _218
REMARK   84  A    between atoms: _218  and  _219
REMARK   85  A    between atoms: _218  and  _221
REMARK   86  A    between atoms: _221  and  _222
REMARK   87  A    between atoms: _222  and  _326
REMARK   88  A    between atoms: _223  and  _225
REMARK   89  A    between atoms: _225  and  _226
REMARK   90  A    between atoms: _225  and  _228
REMARK   91  A    between atoms: _228  and  _229
REMARK   92  A    between atoms: _231  and  _233
REMARK   93  A    between atoms: _233  and  _234
REMARK   94  A    between atoms: _233  and  _236
REMARK   95  A    between atoms: _236  and  _237
REMARK   96  A    between atoms: _240  and  _242
REMARK   97  A    between atoms: _242  and  _243
REMARK   98  A    between atoms: _242  and  _245
REMARK   99  A    between atoms: _245  and  _246
REMARK  100  A    between atoms: _253  and  _254
REMARK  101  A    between atoms: _259  and  _261
REMARK  102  A    between atoms: _261  and  _262
REMARK  103  A    between atoms: _265  and  _267
REMARK  104  A    between atoms: _267  and  _268
REMARK  105  A    between atoms: _267  and  _270
REMARK  106  A    between atoms: _273  and  _275
REMARK  107  A    between atoms: _275  and  _276
REMARK  108  A    between atoms: _275  and  _278
REMARK  109  A    between atoms: _278  and  _279
REMARK  110  A    between atoms: _281  and  _283
REMARK  111  A    between atoms: _283  and  _284
REMARK  112  A    between atoms: _287  and  _289
REMARK  113  A    between atoms: _289  and  _290
REMARK  114  A    between atoms: _292  and  _294
REMARK  115  A    between atoms: _294  and  _295
REMARK  116  A    between atoms: _294  and  _297
REMARK  117  A    between atoms: _297  and  _298
REMARK  118  A    between atoms: _301  and  _303
REMARK  119  A    between atoms: _303  and  _304
REMARK  120  A    between atoms: _303  and  _306
REMARK  121  A    between atoms: _306  and  _307
REMARK  122  A    between atoms: _312  and  _313
REMARK  123  A    between atoms: _315  and  _317
REMARK  124  A    between atoms: _317  and  _318
REMARK  125  A    between atoms: _320  and  _322
REMARK  126  A    between atoms: _322  and  _323
REMARK  127  A    between atoms: _322  and  _325
REMARK  128  A    between atoms: _325  and  _326
REMARK  129  A    between atoms: _327  and  _329
REMARK  130  A    between atoms: _329  and  _330
REMARK  131  A    between atoms: _329  and  _332
REMARK  132  A    between atoms: _332  and  _333
REMARK  133  A    between atoms: _336  and  _338
REMARK  134  A    between atoms: _338  and  _339
REMARK  135  A    between atoms: _338  and  _341
REMARK  136  A    between atoms: _344  and  _346
REMARK  137  A    between atoms: _346  and  _347
REMARK  138  A    between atoms: _346  and  _349
REMARK  139  A    between atoms: _349  and  _350
REMARK  140  A    between atoms: _353  and  _355
REMARK  141  A    between atoms: _355  and  _356
REMARK  142  A    between atoms: _355  and  _358
REMARK  143  A    between atoms: _361  and  _363
REMARK  144  A    between atoms: _363  and  _364
REMARK  145  A    between atoms: _363  and  _366
REMARK  146  A    between atoms: _366  and  _367
REMARK  147  A    between atoms: _370  and  _372
REMARK  148  A    between atoms: _372  and  _373
REMARK  149  A    between atoms: _372  and  _375
REMARK  150  A    between atoms: _375  and  _376
REMARK  151  A    between atoms: _381  and  _382
REMARK  152  A    between atoms: _384  and  _386
REMARK  153  A    between atoms: _386  and  _387
REMARK  154  A    between atoms: _386  and  _389
REMARK  155  A    between atoms: _389  and  _390
REMARK  156  A    between atoms: _393  and  _395
REMARK  157  A    between atoms: _395  and  _396
REMARK  158  A    between atoms: _395  and  _398
REMARK  159  A    between atoms: _398  and  _399
REMARK                            x       y       z     vdW  Elec       q    Type
REMARK                         _______ _______ _______ _____ _____    ______ ____
ROOT
ATOM      1  C   ASN A   2      17.500  71.730  -2.511  0.00  0.00    +0.241 C 
ATOM      2  N   ALA A   3      17.032  72.876  -2.996  0.00  0.00    -0.297 N 
ATOM      3  H   ALA A   3      17.105  73.738  -2.419  0.00  0.00    +0.150 HD
ATOM      4  O   ASN A   2      17.418  70.668  -3.121  0.00  0.00    -0.273 OA
ENDROOT
BRANCH   2   5
ATOM      5  CA  ALA A   3      16.417  72.955  -4.320  0.00  0.00    +0.149 C 
ATOM      6  CB  ALA A   3      15.455  74.125  -4.382  0.00  0.00    +0.031 C 
BRANCH   5   7
ATOM      7  C   ALA A   3      17.550  73.145  -5.320  0.00  0.00    +0.241 C 
ATOM      8  N   ALA A   4      18.293  72.067  -5.543  0.00  0.00    -0.297 N 
ATOM      9  H   ALA A   4      18.040  71.179  -5.064  0.00  0.00    +0.150 HD
ATOM     10  O   ALA A   3      17.741  74.230  -5.874  0.00  0.00    -0.273 OA
BRANCH   8  11
ATOM     11  CA  ALA A   4      19.446  72.077  -6.429  0.00  0.00    +0.149 C 
ATOM     12  CB  ALA A   4      20.446  71.027  -5.957  0.00  0.00    +0.031 C 
BRANCH  11  13
ATOM     13  C   ALA A   4      19.120  71.844  -7.892  0.00  0.00    +0.241 C 
ATOM     14  O   ALA A   4      18.004  71.465  -8.240  0.00  0.00    -0.273 OA
ATOM     15  N   ASN A   5      20.111  72.087  -8.747  0.00  0.00    -0.298 N 
ATOM     16  H   ASN A   5      21.015  72.452  -8.385  0.00  0.00    +0.150 HD
BRANCH  15  17
ATOM     17  CA  ASN A   5      19.961  71.855 -10.175  0.00  0.00    +0.146 C 
BRANCH  17  18
ATOM     18  C   ASN A   5      20.487  70.446 -10.428  0.00  0.00    +0.227 C 
ATOM     19  O   ASN A   5      21.211  69.900  -9.602  0.00  0.00    -0.286 OA
ENDBRANCH  17  18
BRANCH  17  20
ATOM     20  CB  ASN A   5      20.751  72.889 -10.995  0.00  0.00    +0.112 C 
BRANCH  20  21
ATOM     21  CG  ASN A   5      22.209  73.009 -10.562  0.00  0.00    +0.222 C 
ATOM     22  ND2 ASN A   5      22.625  74.226 -10.228  0.00  0.00    -0.329 N 
ATOM     23 HD21 ASN A   5      23.611  74.376  -9.932  0.00  0.00    +0.145 HD
ATOM     24 HD22 ASN A   5      21.965  75.029 -10.263  0.00  0.00    +0.145 HD
ATOM     25  OD1 ASN A   5      22.951  72.023 -10.538  0.00  0.00    -0.275 OA
ENDBRANCH  20  21
ENDBRANCH  17  20
ENDBRANCH  15  17
ENDBRANCH  11  13
ENDBRANCH   8  11
ENDBRANCH   5   7
ENDBRANCH   2   5
BRANCH   1  26
ATOM     26  CA  ASN A   2      18.144  71.775  -1.124  0.00  0.00    +0.158 C 
BRANCH  26  29
ATOM     27  C   VAL A   1      16.773  71.023   0.739  0.00  0.00    +0.238 C 
ATOM     28  O   VAL A   1      16.590  72.174   1.144  0.00  0.00    -0.274 OA
ATOM     29  N   ASN A   2      17.526  70.734  -0.316  0.00  0.00    -0.297 N 
ATOM     30  H   ASN A   2      17.678  69.737  -0.572  0.00  0.00    +0.150 HD
BRANCH  27  31
ATOM     31  CA  VAL A   1      16.154  69.838   1.457  0.00  0.00    +0.145 C 
BRANCH  31  32
ATOM     32  CB  VAL A   1      14.735  69.603   0.908  0.00  0.00    +0.025 C 
ATOM     33  CG2 VAL A   1      14.118  68.378   1.583  0.00  0.00    +0.002 C 
ATOM     34  CG1 VAL A   1      14.775  69.433  -0.602  0.00  0.00    +0.002 C 
ENDBRANCH  31  32
BRANCH  31  35
ATOM     35  N   VAL A   1      16.113  70.072   2.885  0.00  0.00    -0.238 NA
ATOM     36  H   VAL A   1      15.289  70.548   3.305  0.00  0.00    +0.142 HD
ENDBRANCH  31  35
ENDBRANCH  27  31
ENDBRANCH  26  29
BRANCH  26  37
ATOM     37  CB  ASN A   2      19.649  71.539  -1.266  0.00  0.00    +0.114 C 
BRANCH  37  38
ATOM     38  CG  ASN A   2      20.296  72.510  -2.243  0.00  0.00    +0.222 C 
ATOM     39  ND2 ASN A   2      19.716  73.697  -2.363  0.00  0.00    -0.329 N 
ATOM     40 HD21 ASN A   2      18.864  73.918  -1.809  0.00  0.00    +0.145 HD
ATOM     41 HD22 ASN A   2      20.113  74.407  -3.011  0.00  0.00    +0.145 HD
ATOM     42  OD1 ASN A   2      21.305  72.199  -2.875  0.00  0.00    -0.275 OA
ENDBRANCH  37  38
ENDBRANCH  26  37
ENDBRANCH   1  26
TORSDOF 15
REMARK  Name = ../refined-set-2016/2bfr/2bfr_pocket.pdb
REMARK  159 active torsions:
REMARK  status: ('A' for Active; 'I' for Inactive)
REMARK    1  A    between atoms: _1  and  _3
REMARK    2  A    between atoms: _3  and  _4
REMARK    3  A    between atoms: _7  and  _9
REMARK    4  A    between atoms: _9  and  _10
REMARK    5  A    between atoms: _9  and  _12
REMARK    6  A    between atoms: _12  and  _13
REMARK    7  A    between atoms: _13  and  _14
REMARK    8  A    between atoms: _19  and  _21
REMARK    9  A    between atoms: _21  and  _22
REMARK   10  A    between atoms: _24  and  _26
REMARK   11  A    between atoms: _26  and  _27
REMARK   12  A    between atoms: _26  and  _29
REMARK   13  A    between atoms: _29  and  _30
REMARK   14  A    between atoms: _33  and  _35
REMARK   15  A    between atoms: _35  and  _36
REMARK   16  A    between atoms: _35  and  _38
REMARK   17  A    between atoms: _38  and  _39
REMARK   18  A    between atoms: _42  and  _44
REMARK   19  A    between atoms: _44  and  _45
REMARK   20  A    between atoms: _44  and  _47
REMARK   21  A    between atoms: _47  and  _48
REMARK   22  A    between atoms: _51  and  _53
REMARK   23  A    between atoms: _53  and  _54
REMARK   24  A    between atoms: _53  and  _56
REMARK   25  A    between atoms: _56  and  _57
REMARK   26  A    between atoms: _57  and  _58
REMARK   27  A    between atoms: _63  and  _65
REMARK   28  A    between atoms: _65  and  _66
REMARK   29  A    between atoms: _65  and  _68
REMARK   30  A    between atoms: _68  and  _69
REMARK   31  A    between atoms: _74  and  _75
REMARK   32  A    between atoms: _77  and  _79
REMARK   33  A    between atoms: _79  and  _80
REMARK   34  A    between atoms: _79  and  _82
REMARK   35  A    between atoms: _85  and  _87
REMARK   36  A    between atoms: _87  and  _88
REMARK   37  A    between atoms: _87  and  _90
REMARK   38  A    between atoms: _90  and  _91
REMARK   39  A    between atoms: _96  and  _98
REMARK   40  A    between atoms: _98  and  _99
REMARK   41  A    between atoms: _102  and  _104
REMARK   42  A    between atoms: _104  and  _105
REMARK   43  A    between atoms: _108  and  _110
REMARK   44  A    between atoms: _110  and  _111
REMARK   45  A    between atoms: _110  and  _113
REMARK   46  A    between atoms: _113  and  _114
REMARK   47  A    between atoms: _119  and  _121
REMARK   48  A    between atoms: _121  and  _122
REMARK   49  A    between atoms: _124  and  _126
REMARK   50  A    between atoms: _126  and  _127
REMARK   51  A    between atoms: _129  and  _131
REMARK   52  A    between atoms: _131  and  _132
REMARK   53  A    between atoms: _131  and  _134
REMARK   54  A    between atoms: _137  and  _139
REMARK   55  A    between atoms: _139  and  _140
REMARK   56  A    between atoms: _143  and  _145
REMARK   57  A    between atoms: _145  and  _146
REMARK   58  A    between atoms: _145  and  _148
REMARK   59  A    between atoms: _148  and  _149
REMARK   60  A    between atoms: _154  and  _155
REMARK   61  A    between atoms: _157  and  _159
REMARK   62  A    between atoms: _159  and  _160
REMARK   63  A    between atoms: _163  and  _165
REMARK   64  A    between atoms: _165  and  _166
REMARK   65  A    between atoms: _165  and  _168
REMARK   66  A    between atoms: _168  and  _169
REMARK   67  A    between atoms: _172  and  _174
REMARK   68  A    between atoms: _174  and  _175
REMARK   69  A    between atoms: _178  and  _180
REMARK   70  A    between atoms: _180  and  _181
REMARK   71  A    between atoms: _180  and  _183
REMARK   72  A    between atoms: _183  and  _184
REMARK   73  A    between atoms: _187  and  _189
REMARK   74  A    between atoms: _189  and  _190
REMARK   75  A    between atoms: _189  and  _192
REMARK   76  A    between atoms: _195  and  _197
REMARK   77  A    between atoms: _197  and  _198
REMARK   78  A    between atoms: _201  and  _202
REMARK   79  A    between atoms: _207  and  _209
REMARK   80  A    between atoms: _209  and  _210
REMARK   81  A    between atoms: _209  and  _212
REMARK   82  A    between atoms: _212  and  _213
REMARK   83  A    between atoms: _216  and  _218
REMARK   84  A    between atoms: _218  and  _219
REMARK   85  A    between atoms: _218  and  _221
REMARK   86  A    between atoms: _221  and  _222
REMARK   87  A    between atoms: _222  and  _326
REMARK   88  A    between atoms: _223  and  _225
REMARK   89  A    between atoms: _225  and  _226
REMARK   90  A    between atoms: _225  and  _228
REMARK   91  A    between atoms: _228  and  _229
REMARK   92  A    between atoms: _231  and  _233
REMARK   93  A    between atoms: _233  and  _234
REMARK   94  A    between atoms: _233  and  _236
REMARK   95  A    between atoms: _236  and  _237
REMARK   96  A    between atoms: _240  and  _242
REMARK   97  A    between atoms: _242  and  _243
REMARK   98  A    between atoms: _242  and  _245
REMARK   99  A    between atoms: _245  and  _246
REMARK  100  A    between atoms: _253  and  _254
REMARK  101  A    between atoms: _259  and  _261
REMARK  102  A    between atoms: _261  and  _262
REMARK  103  A    between atoms: _265  and  _267
REMARK  104  A    between atoms: _267  and  _268
REMARK  105  A    between atoms: _267  and  _270
REMARK  106  A    between atoms: _273  and  _275
REMARK  107  A    between atoms: _275  and  _276
REMARK  108  A    between atoms: _275  and  _278
REMARK  109  A    between atoms: _278  and  _279
REMARK  110  A    between atoms: _281  and  _283
REMARK  111  A    between atoms: _283  and  _284
REMARK  112  A    between atoms: _287  and  _289
REMARK  113  A    between atoms: _289  and  _290
REMARK  114  A    between atoms: _292  and  _294
REMARK  115  A    between atoms: _294  and  _295
REMARK  116  A    between atoms: _294  and  _297
REMARK  117  A    between atoms: _297  and  _298
REMARK  118  A    between atoms: _301  and  _303
REMARK  119  A    between atoms: _303  and  _304
REMARK  120  A    between atoms: _303  and  _306
REMARK  121  A    between atoms: _306  and  _307
REMARK  122  A    between atoms: _312  and  _313
REMARK  123  A    between atoms: _315  and  _317
REMARK  124  A    between atoms: _317  and  _318
REMARK  125  A    between atoms: _320  and  _322
REMARK  126  A    between atoms: _322  and  _323
REMARK  127  A    between atoms: _322  and  _325
REMARK  128  A    between atoms: _325  and  _326
REMARK  129  A    between atoms: _327  and  _329
REMARK  130  A    between atoms: _329  and  _330
REMARK  131  A    between atoms: _329  and  _332
REMARK  132  A    between atoms: _332  and  _333
REMARK  133  A    between atoms: _336  and  _338
REMARK  134  A    between atoms: _338  and  _339
REMARK  135  A    between atoms: _338  and  _341
REMARK  136  A    between atoms: _344  and  _346
REMARK  137  A    between atoms: _346  and  _347
REMARK  138  A    between atoms: _346  and  _349
REMARK  139  A    between atoms: _349  and  _350
REMARK  140  A    between atoms: _353  and  _355
REMARK  141  A    between atoms: _355  and  _356
REMARK  142  A    between atoms: _355  and  _358
REMARK  143  A    between atoms: _361  and  _363
REMARK  144  A    between atoms: _363  and  _364
REMARK  145  A    between atoms: _363  and  _366
REMARK  146  A    between atoms: _366  and  _367
REMARK  147  A    between atoms: _370  and  _372
REMARK  148  A    between atoms: _372  and  _373
REMARK  149  A    between atoms: _372  and  _375
REMARK  150  A    between atoms: _375  and  _376
REMARK  151  A    between atoms: _381  and  _382
REMARK  152  A    between atoms: _384  and  _386
REMARK  153  A    between atoms: _386  and  _387
REMARK  154  A    between atoms: _386  and  _389
REMARK  155  A    between atoms: _389  and  _390
REMARK  156  A    between atoms: _393  and  _395
REMARK  157  A    between atoms: _395  and  _396
REMARK  158  A    between atoms: _395  and  _398
REMARK  159  A    between atoms: _398  and  _399
REMARK                            x       y       z     vdW  Elec       q    Type
REMARK                         _______ _______ _______ _____ _____    ______ ____
ROOT
ATOM      1  CA  TYR A   5      24.266  78.622  -2.295  0.00  0.00    +0.153 C 
ENDROOT
BRANCH   1   4
ATOM      2  C   ALA A   4      22.847  76.643  -2.322  0.00  0.00    +0.241 C 
ATOM      3  O   ALA A   4      23.621  76.023  -1.591  0.00  0.00    -0.273 OA
ATOM      4  N   TYR A   5      23.075  77.893  -2.718  0.00  0.00    -0.297 N 
ATOM      5  H   TYR A   5      22.388  78.361  -3.343  0.00  0.00    +0.150 HD
BRANCH   2   6
ATOM      6  CA  ALA A   4      21.552  75.998  -2.822  0.00  0.00    +0.149 C 
ATOM      7  CB  ALA A   4      21.699  75.586  -4.273  0.00  0.00    +0.031 C 
BRANCH   6  10
ATOM      8  C   VAL A   3      20.116  77.438  -1.486  0.00  0.00    +0.241 C 
ATOM      9  O   VAL A   3      20.703  77.132  -0.446  0.00  0.00    -0.273 OA
ATOM     10  N   ALA A   4      20.450  76.944  -2.676  0.00  0.00    -0.297 N 
ATOM     11  H   ALA A   4      19.915  77.238  -3.518  0.00  0.00    +0.150 HD
BRANCH   8  12
ATOM     12  CA  VAL A   3      18.966  78.440  -1.461  0.00  0.00    +0.149 C 
BRANCH  12  15
ATOM     13  C   GLY A   2      19.837  79.961  -3.142  0.00  0.00    +0.243 C 
ATOM     14  O   GLY A   2      20.882  80.142  -2.512  0.00  0.00    -0.273 OA
ATOM     15  N   VAL A   3      18.867  79.157  -2.720  0.00  0.00    -0.297 N 
ATOM     16  H   VAL A   3      18.016  79.038  -3.306  0.00  0.00    +0.150 HD
BRANCH  13  17
ATOM     17  CA  GLY A   2      19.592  80.660  -4.465  0.00  0.00    +0.176 C 
BRANCH  17  20
ATOM     18  C   GLY A   1      21.769  80.189  -5.390  0.00  0.00    +0.240 C 
ATOM     19  O   GLY A   1      21.702  79.011  -5.043  0.00  0.00    -0.274 OA
ATOM     20  N   GLY A   2      20.805  81.068  -5.145  0.00  0.00    -0.295 N 
ATOM     21  H   GLY A   2      20.921  82.057  -5.443  0.00  0.00    +0.150 HD
BRANCH  18  22
ATOM     22  CA  GLY A   1      22.986  80.717  -6.121  0.00  0.00    +0.169 C 
BRANCH  22  23
ATOM     23  N   GLY A   1      23.819  79.658  -6.661  0.00  0.00    -0.236 NA
ATOM     24  H   GLY A   1      23.427  78.704  -6.795  0.00  0.00    +0.142 HD
ENDBRANCH  22  23
ENDBRANCH  18  22
ENDBRANCH  17  20
ENDBRANCH  13  17
ENDBRANCH  12  15
BRANCH  12  25
ATOM     25  CB  VAL A   3      17.636  77.728  -1.124  0.00  0.00    +0.027 C 
ATOM     26  CG2 VAL A   3      17.674  77.225   0.307  0.00  0.00    +0.002 C 
ATOM     27  CG1 VAL A   3      17.368  76.598  -2.111  0.00  0.00    +0.002 C 
ENDBRANCH  12  25
ENDBRANCH   8  12
ENDBRANCH   6  10
ENDBRANCH   2   6
ENDBRANCH   1   4
BRANCH   1  28
ATOM     28  C   TYR A   5      24.252  78.817  -0.785  0.00  0.00    +0.241 C 
ATOM     29  O   TYR A   5      25.229  78.527  -0.104  0.00  0.00    -0.273 OA
ATOM     30  N   ALA A   6      23.139  79.325  -0.267  0.00  0.00    -0.297 N 
ATOM     31  H   ALA A   6      22.345  79.564  -0.895  0.00  0.00    +0.150 HD
BRANCH  30  32
ATOM     32  CA  ALA A   6      23.013  79.553   1.166  0.00  0.00    +0.149 C 
ATOM     33  CB  ALA A   6      21.595  79.997   1.503  0.00  0.00    +0.031 C 
BRANCH  32  34
ATOM     34  C   ALA A   6      23.360  78.287   1.942  0.00  0.00    +0.241 C 
ATOM     35  O   ALA A   6      24.155  78.320   2.885  0.00  0.00    -0.273 OA
ATOM     36  N   ILE A   7      22.759  77.171   1.539  0.00  0.00    -0.298 N 
ATOM     37  H   ILE A   7      22.100  77.213   0.736  0.00  0.00    +0.150 HD
BRANCH  36  38
ATOM     38  CA  ILE A   7      22.999  75.896   2.191  0.00  0.00    +0.137 C 
BRANCH  38  39
ATOM     39  CB  ILE A   7      22.048  74.815   1.634  0.00  0.00    +0.026 C 
ATOM     40  CG2 ILE A   7      22.468  73.426   2.134  0.00  0.00    +0.002 C 
BRANCH  39  41
ATOM     41  CG1 ILE A   7      20.612  75.136   2.059  0.00  0.00    +0.002 C 
ATOM     42  CD1 ILE A   7      19.581  74.191   1.497  0.00  0.00    +0.000 C 
ENDBRANCH  39  41
ENDBRANCH  38  39
BRANCH  38  43
ATOM     43  C   ILE A   7      24.452  75.443   2.035  0.00  0.00    +0.227 C 
ATOM     44  O   ILE A   7      25.079  75.023   3.004  0.00  0.00    -0.286 OA
ENDBRANCH  38  43
ENDBRANCH  36  38
ENDBRANCH  32  34
ENDBRANCH  30  32
ENDBRANCH   1  28
BRANCH   1  45
ATOM     45  CB  TYR A   5      24.327  79.997  -2.963  0.00  0.00    +0.055 C 
BRANCH  45  46
ATOM     46  CG  TYR A   5      25.533  80.797  -2.535  0.00  0.00    -0.020 A 
ATOM     47  CD2 TYR A   5      25.454  81.690  -1.470  0.00  0.00    -0.001 A 
ATOM     48  CE2 TYR A   5      26.583  82.371  -1.016  0.00  0.00    +0.036 A 
ATOM     49  CZ  TYR A   5      27.807  82.163  -1.638  0.00  0.00    +0.134 A 
ATOM     50  CE1 TYR A   5      27.909  81.285  -2.705  0.00  0.00    +0.036 A 
ATOM     51  CD1 TYR A   5      26.774  80.608  -3.147  0.00  0.00    -0.001 A 
BRANCH  49  52
ATOM     52  OH  TYR A   5      28.923  82.829  -1.190  0.00  0.00    -0.506 OA
ATOM     53  HH  TYR A   5      29.704  82.568  -1.739  0.00  0.00    +0.292 HD
ENDBRANCH  49  52
ENDBRANCH  45  46
ENDBRANCH   1  45
TORSDOF 20
REMARK  Name = ../refined-set-2016/2bfr/2bfr_pocket.pdb
REMARK  159 active torsions:
REMARK  status: ('A' for Active; 'I' for Inactive)
REMARK    1  A    between atoms: _1  and  _3
REMARK    2  A    between atoms: _3  and  _4
REMARK    3  A    between atoms: _7  and  _9
REMARK    4  A    between atoms: _9  and  _10
REMARK    5  A    between atoms: _9  and  _12
REMARK    6  A    between atoms: _12  and  _13
REMARK    7  A    between atoms: _13  and  _14
REMARK    8  A    between atoms: _19  and  _21
REMARK    9  A    between atoms: _21  and  _22
REMARK   10  A    between atoms: _24  and  _26
REMARK   11  A    between atoms: _26  and  _27
REMARK   12  A    between atoms: _26  and  _29
REMARK   13  A    between atoms: _29  and  _30
REMARK   14  A    between atoms: _33  and  _35
REMARK   15  A    between atoms: _35  and  _36
REMARK   16  A    between atoms: _35  and  _38
REMARK   17  A    between atoms: _38  and  _39
REMARK   18  A    between atoms: _42  and  _44
REMARK   19  A    between atoms: _44  and  _45
REMARK   20  A    between atoms: _44  and  _47
REMARK   21  A    between atoms: _47  and  _48
REMARK   22  A    between atoms: _51  and  _53
REMARK   23  A    between atoms: _53  and  _54
REMARK   24  A    between atoms: _53  and  _56
REMARK   25  A    between atoms: _56  and  _57
REMARK   26  A    between atoms: _57  and  _58
REMARK   27  A    between atoms: _63  and  _65
REMARK   28  A    between atoms: _65  and  _66
REMARK   29  A    between atoms: _65  and  _68
REMARK   30  A    between atoms: _68  and  _69
REMARK   31  A    between atoms: _74  and  _75
REMARK   32  A    between atoms: _77  and  _79
REMARK   33  A    between atoms: _79  and  _80
REMARK   34  A    between atoms: _79  and  _82
REMARK   35  A    between atoms: _85  and  _87
REMARK   36  A    between atoms: _87  and  _88
REMARK   37  A    between atoms: _87  and  _90
REMARK   38  A    between atoms: _90  and  _91
REMARK   39  A    between atoms: _96  and  _98
REMARK   40  A    between atoms: _98  and  _99
REMARK   41  A    between atoms: _102  and  _104
REMARK   42  A    between atoms: _104  and  _105
REMARK   43  A    between atoms: _108  and  _110
REMARK   44  A    between atoms: _110  and  _111
REMARK   45  A    between atoms: _110  and  _113
REMARK   46  A    between atoms: _113  and  _114
REMARK   47  A    between atoms: _119  and  _121
REMARK   48  A    between atoms: _121  and  _122
REMARK   49  A    between atoms: _124  and  _126
REMARK   50  A    between atoms: _126  and  _127
REMARK   51  A    between atoms: _129  and  _131
REMARK   52  A    between atoms: _131  and  _132
REMARK   53  A    between atoms: _131  and  _134
REMARK   54  A    between atoms: _137  and  _139
REMARK   55  A    between atoms: _139  and  _140
REMARK   56  A    between atoms: _143  and  _145
REMARK   57  A    between atoms: _145  and  _146
REMARK   58  A    between atoms: _145  and  _148
REMARK   59  A    between atoms: _148  and  _149
REMARK   60  A    between atoms: _154  and  _155
REMARK   61  A    between atoms: _157  and  _159
REMARK   62  A    between atoms: _159  and  _160
REMARK   63  A    between atoms: _163  and  _165
REMARK   64  A    between atoms: _165  and  _166
REMARK   65  A    between atoms: _165  and  _168
REMARK   66  A    between atoms: _168  and  _169
REMARK   67  A    between atoms: _172  and  _174
REMARK   68  A    between atoms: _174  and  _175
REMARK   69  A    between atoms: _178  and  _180
REMARK   70  A    between atoms: _180  and  _181
REMARK   71  A    between atoms: _180  and  _183
REMARK   72  A    between atoms: _183  and  _184
REMARK   73  A    between atoms: _187  and  _189
REMARK   74  A    between atoms: _189  and  _190
REMARK   75  A    between atoms: _189  and  _192
REMARK   76  A    between atoms: _195  and  _197
REMARK   77  A    between atoms: _197  and  _198
REMARK   78  A    between atoms: _201  and  _202
REMARK   79  A    between atoms: _207  and  _209
REMARK   80  A    between atoms: _209  and  _210
REMARK   81  A    between atoms: _209  and  _212
REMARK   82  A    between atoms: _212  and  _213
REMARK   83  A    between atoms: _216  and  _218
REMARK   84  A    between atoms: _218  and  _219
REMARK   85  A    between atoms: _218  and  _221
REMARK   86  A    between atoms: _221  and  _222
REMARK   87  A    between atoms: _222  and  _326
REMARK   88  A    between atoms: _223  and  _225
REMARK   89  A    between atoms: _225  and  _226
REMARK   90  A    between atoms: _225  and  _228
REMARK   91  A    between atoms: _228  and  _229
REMARK   92  A    between atoms: _231  and  _233
REMARK   93  A    between atoms: _233  and  _234
REMARK   94  A    between atoms: _233  and  _236
REMARK   95  A    between atoms: _236  and  _237
REMARK   96  A    between atoms: _240  and  _242
REMARK   97  A    between atoms: _242  and  _243
REMARK   98  A    between atoms: _242  and  _245
REMARK   99  A    between atoms: _245  and  _246
REMARK  100  A    between atoms: _253  and  _254
REMARK  101  A    between atoms: _259  and  _261
REMARK  102  A    between atoms: _261  and  _262
REMARK  103  A    between atoms: _265  and  _267
REMARK  104  A    between atoms: _267  and  _268
REMARK  105  A    between atoms: _267  and  _270
REMARK  106  A    between atoms: _273  and  _275
REMARK  107  A    between atoms: _275  and  _276
REMARK  108  A    between atoms: _275  and  _278
REMARK  109  A    between atoms: _278  and  _279
REMARK  110  A    between atoms: _281  and  _283
REMARK  111  A    between atoms: _283  and  _284
REMARK  112  A    between atoms: _287  and  _289
REMARK  113  A    between atoms: _289  and  _290
REMARK  114  A    between atoms: _292  and  _294
REMARK  115  A    between atoms: _294  and  _295
REMARK  116  A    between atoms: _294  and  _297
REMARK  117  A    between atoms: _297  and  _298
REMARK  118  A    between atoms: _301  and  _303
REMARK  119  A    between atoms: _303  and  _304
REMARK  120  A    between atoms: _303  and  _306
REMARK  121  A    between atoms: _306  and  _307
REMARK  122  A    between atoms: _312  and  _313
REMARK  123  A    between atoms: _315  and  _317
REMARK  124  A    between atoms: _317  and  _318
REMARK  125  A    between atoms: _320  and  _322
REMARK  126  A    between atoms: _322  and  _323
REMARK  127  A    between atoms: _322  and  _325
REMARK  128  A    between atoms: _325  and  _326
REMARK  129  A    between atoms: _327  and  _329
REMARK  130  A    between atoms: _329  and  _330
REMARK  131  A    between atoms: _329  and  _332
REMARK  132  A    between atoms: _332  and  _333
REMARK  133  A    between atoms: _336  and  _338
REMARK  134  A    between atoms: _338  and  _339
REMARK  135  A    between atoms: _338  and  _341
REMARK  136  A    between atoms: _344  and  _346
REMARK  137  A    between atoms: _346  and  _347
REMARK  138  A    between atoms: _346  and  _349
REMARK  139  A    between atoms: _349  and  _350
REMARK  140  A    between atoms: _353  and  _355
REMARK  141  A    between atoms: _355  and  _356
REMARK  142  A    between atoms: _355  and  _358
REMARK  143  A    between atoms: _361  and  _363
REMARK  144  A    between atoms: _363  and  _364
REMARK  145  A    between atoms: _363  and  _366
REMARK  146  A    between atoms: _366  and  _367
REMARK  147  A    between atoms: _370  and  _372
REMARK  148  A    between atoms: _372  and  _373
REMARK  149  A    between atoms: _372  and  _375
REMARK  150  A    between atoms: _375  and  _376
REMARK  151  A    between atoms: _381  and  _382
REMARK  152  A    between atoms: _384  and  _386
REMARK  153  A    between atoms: _386  and  _387
REMARK  154  A    between atoms: _386  and  _389
REMARK  155  A    between atoms: _389  and  _390
REMARK  156  A    between atoms: _393  and  _395
REMARK  157  A    between atoms: _395  and  _396
REMARK  158  A    between atoms: _395  and  _398
REMARK  159  A    between atoms: _398  and  _399
REMARK                            x       y       z     vdW  Elec       q    Type
REMARK                         _______ _______ _______ _____ _____    ______ ____
ROOT
ATOM      1  CA  ALA A   1      26.444  77.345   5.679  0.00  0.00    +0.133 C 
ATOM      2  CB  ALA A   1      24.960  77.478   6.024  0.00  0.00    +0.027 C 
ENDROOT
BRANCH   1   3
ATOM      3  N   ALA A   1      26.648  77.608   4.257  0.00  0.00    -0.239 NA
ATOM      4  H   ALA A   1      25.831  77.571   3.614  0.00  0.00    +0.142 HD
ENDBRANCH   1   3
BRANCH   1   5
ATOM      5  C   ALA A   1      26.964  75.985   6.146  0.00  0.00    +0.224 C 
ATOM      6  O   ALA A   1      27.279  75.803   7.325  0.00  0.00    -0.287 OA
ENDBRANCH   1   5
TORSDOF 2
REMARK  Name = ../refined-set-2016/2bfr/2bfr_pocket.pdb
REMARK  159 active torsions:
REMARK  status: ('A' for Active; 'I' for Inactive)
REMARK    1  A    between atoms: _1  and  _3
REMARK    2  A    between atoms: _3  and  _4
REMARK    3  A    between atoms: _7  and  _9
REMARK    4  A    between atoms: _9  and  _10
REMARK    5  A    between atoms: _9  and  _12
REMARK    6  A    between atoms: _12  and  _13
REMARK    7  A    between atoms: _13  and  _14
REMARK    8  A    between atoms: _19  and  _21
REMARK    9  A    between atoms: _21  and  _22
REMARK   10  A    between atoms: _24  and  _26
REMARK   11  A    between atoms: _26  and  _27
REMARK   12  A    between atoms: _26  and  _29
REMARK   13  A    between atoms: _29  and  _30
REMARK   14  A    between atoms: _33  and  _35
REMARK   15  A    between atoms: _35  and  _36
REMARK   16  A    between atoms: _35  and  _38
REMARK   17  A    between atoms: _38  and  _39
REMARK   18  A    between atoms: _42  and  _44
REMARK   19  A    between atoms: _44  and  _45
REMARK   20  A    between atoms: _44  and  _47
REMARK   21  A    between atoms: _47  and  _48
REMARK   22  A    between atoms: _51  and  _53
REMARK   23  A    between atoms: _53  and  _54
REMARK   24  A    between atoms: _53  and  _56
REMARK   25  A    between atoms: _56  and  _57
REMARK   26  A    between atoms: _57  and  _58
REMARK   27  A    between atoms: _63  and  _65
REMARK   28  A    between atoms: _65  and  _66
REMARK   29  A    between atoms: _65  and  _68
REMARK   30  A    between atoms: _68  and  _69
REMARK   31  A    between atoms: _74  and  _75
REMARK   32  A    between atoms: _77  and  _79
REMARK   33  A    between atoms: _79  and  _80
REMARK   34  A    between atoms: _79  and  _82
REMARK   35  A    between atoms: _85  and  _87
REMARK   36  A    between atoms: _87  and  _88
REMARK   37  A    between atoms: _87  and  _90
REMARK   38  A    between atoms: _90  and  _91
REMARK   39  A    between atoms: _96  and  _98
REMARK   40  A    between atoms: _98  and  _99
REMARK   41  A    between atoms: _102  and  _104
REMARK   42  A    between atoms: _104  and  _105
REMARK   43  A    between atoms: _108  and  _110
REMARK   44  A    between atoms: _110  and  _111
REMARK   45  A    between atoms: _110  and  _113
REMARK   46  A    between atoms: _113  and  _114
REMARK   47  A    between atoms: _119  and  _121
REMARK   48  A    between atoms: _121  and  _122
REMARK   49  A    between atoms: _124  and  _126
REMARK   50  A    between atoms: _126  and  _127
REMARK   51  A    between atoms: _129  and  _131
REMARK   52  A    between atoms: _131  and  _132
REMARK   53  A    between atoms: _131  and  _134
REMARK   54  A    between atoms: _137  and  _139
REMARK   55  A    between atoms: _139  and  _140
REMARK   56  A    between atoms: _143  and  _145
REMARK   57  A    between atoms: _145  and  _146
REMARK   58  A    between atoms: _145  and  _148
REMARK   59  A    between atoms: _148  and  _149
REMARK   60  A    between atoms: _154  and  _155
REMARK   61  A    between atoms: _157  and  _159
REMARK   62  A    between atoms: _159  and  _160
REMARK   63  A    between atoms: _163  and  _165
REMARK   64  A    between atoms: _165  and  _166
REMARK   65  A    between atoms: _165  and  _168
REMARK   66  A    between atoms: _168  and  _169
REMARK   67  A    between atoms: _172  and  _174
REMARK   68  A    between atoms: _174  and  _175
REMARK   69  A    between atoms: _178  and  _180
REMARK   70  A    between atoms: _180  and  _181
REMARK   71  A    between atoms: _180  and  _183
REMARK   72  A    between atoms: _183  and  _184
REMARK   73  A    between atoms: _187  and  _189
REMARK   74  A    between atoms: _189  and  _190
REMARK   75  A    between atoms: _189  and  _192
REMARK   76  A    between atoms: _195  and  _197
REMARK   77  A    between atoms: _197  and  _198
REMARK   78  A    between atoms: _201  and  _202
REMARK   79  A    between atoms: _207  and  _209
REMARK   80  A    between atoms: _209  and  _210
REMARK   81  A    between atoms: _209  and  _212
REMARK   82  A    between atoms: _212  and  _213
REMARK   83  A    between atoms: _216  and  _218
REMARK   84  A    between atoms: _218  and  _219
REMARK   85  A    between atoms: _218  and  _221
REMARK   86  A    between atoms: _221  and  _222
REMARK   87  A    between atoms: _222  and  _326
REMARK   88  A    between atoms: _223  and  _225
REMARK   89  A    between atoms: _225  and  _226
REMARK   90  A    between atoms: _225  and  _228
REMARK   91  A    between atoms: _228  and  _229
REMARK   92  A    between atoms: _231  and  _233
REMARK   93  A    between atoms: _233  and  _234
REMARK   94  A    between atoms: _233  and  _236
REMARK   95  A    between atoms: _236  and  _237
REMARK   96  A    between atoms: _240  and  _242
REMARK   97  A    between atoms: _242  and  _243
REMARK   98  A    between atoms: _242  and  _245
REMARK   99  A    between atoms: _245  and  _246
REMARK  100  A    between atoms: _253  and  _254
REMARK  101  A    between atoms: _259  and  _261
REMARK  102  A    between atoms: _261  and  _262
REMARK  103  A    between atoms: _265  and  _267
REMARK  104  A    between atoms: _267  and  _268
REMARK  105  A    between atoms: _267  and  _270
REMARK  106  A    between atoms: _273  and  _275
REMARK  107  A    between atoms: _275  and  _276
REMARK  108  A    between atoms: _275  and  _278
REMARK  109  A    between atoms: _278  and  _279
REMARK  110  A    between atoms: _281  and  _283
REMARK  111  A    between atoms: _283  and  _284
REMARK  112  A    between atoms: _287  and  _289
REMARK  113  A    between atoms: _289  and  _290
REMARK  114  A    between atoms: _292  and  _294
REMARK  115  A    between atoms: _294  and  _295
REMARK  116  A    between atoms: _294  and  _297
REMARK  117  A    between atoms: _297  and  _298
REMARK  118  A    between atoms: _301  and  _303
REMARK  119  A    between atoms: _303  and  _304
REMARK  120  A    between atoms: _303  and  _306
REMARK  121  A    between atoms: _306  and  _307
REMARK  122  A    between atoms: _312  and  _313
REMARK  123  A    between atoms: _315  and  _317
REMARK  124  A    between atoms: _317  and  _318
REMARK  125  A    between atoms: _320  and  _322
REMARK  126  A    between atoms: _322  and  _323
REMARK  127  A    between atoms: _322  and  _325
REMARK  128  A    between atoms: _325  and  _326
REMARK  129  A    between atoms: _327  and  _329
REMARK  130  A    between atoms: _329  and  _330
REMARK  131  A    between atoms: _329  and  _332
REMARK  132  A    between atoms: _332  and  _333
REMARK  133  A    between atoms: _336  and  _338
REMARK  134  A    between atoms: _338  and  _339
REMARK  135  A    between atoms: _338  and  _341
REMARK  136  A    between atoms: _344  and  _346
REMARK  137  A    between atoms: _346  and  _347
REMARK  138  A    between atoms: _346  and  _349
REMARK  139  A    between atoms: _349  and  _350
REMARK  140  A    between atoms: _353  and  _355
REMARK  141  A    between atoms: _355  and  _356
REMARK  142  A    between atoms: _355  and  _358
REMARK  143  A    between atoms: _361  and  _363
REMARK  144  A    between atoms: _363  and  _364
REMARK  145  A    between atoms: _363  and  _366
REMARK  146  A    between atoms: _366  and  _367
REMARK  147  A    between atoms: _370  and  _372
REMARK  148  A    between atoms: _372  and  _373
REMARK  149  A    between atoms: _372  and  _375
REMARK  150  A    between atoms: _375  and  _376
REMARK  151  A    between atoms: _381  and  _382
REMARK  152  A    between atoms: _384  and  _386
REMARK  153  A    between atoms: _386  and  _387
REMARK  154  A    between atoms: _386  and  _389
REMARK  155  A    between atoms: _389  and  _390
REMARK  156  A    between atoms: _393  and  _395
REMARK  157  A    between atoms: _395  and  _396
REMARK  158  A    between atoms: _395  and  _398
REMARK  159  A    between atoms: _398  and  _399
REMARK                            x       y       z     vdW  Elec       q    Type
REMARK                         _______ _______ _______ _____ _____    ______ ____
ROOT
ATOM      1  CA  TYR A   9      13.271  78.172 -12.038  0.00  0.00    +0.153 C 
ENDROOT
BRANCH   1   4
ATOM      2  N   GLY A  10      11.493  79.808 -11.880  0.00  0.00    -0.295 N 
ATOM      3  H   GLY A  10      12.158  80.312 -11.259  0.00  0.00    +0.150 HD
ATOM      4  C   TYR A   9      11.854  78.637 -12.389  0.00  0.00    +0.241 C 
ATOM      5  O   TYR A   9      11.117  77.954 -13.098  0.00  0.00    -0.273 OA
BRANCH   2   6
ATOM      6  CA  GLY A  10      10.204  80.410 -12.159  0.00  0.00    +0.176 C 
BRANCH   6   9
ATOM      7  N   CYS A  11       8.701  78.754 -11.165  0.00  0.00    -0.297 N 
ATOM      8  H   CYS A  11       9.439  78.590 -10.451  0.00  0.00    +0.150 HD
ATOM      9  C   GLY A  10       8.907  79.624 -12.148  0.00  0.00    +0.243 C 
ATOM     10  O   GLY A  10       8.086  79.806 -13.044  0.00  0.00    -0.273 OA
BRANCH   7  11
ATOM     11  CA  CYS A  11       7.436  78.030 -11.091  0.00  0.00    +0.149 C 
BRANCH  11  12
ATOM     12  C   CYS A  11       6.571  78.859 -10.149  0.00  0.00    +0.228 C 
ATOM     13  O   CYS A  11       7.063  79.376  -9.143  0.00  0.00    -0.286 OA
ENDBRANCH  11  12
BRANCH  11  14
ATOM     14  CB  CYS A  11       7.628  76.612 -10.535  0.00  0.00    +0.096 C 
BRANCH  14  15
ATOM     15  SG  CYS A  11       8.694  75.539 -11.560  0.00  0.00    -0.080 S 
BRANCH  15  16
ATOM     16  SG  ALA A   6       7.546  75.103 -13.175  0.00  0.00    -0.080 S 
BRANCH  16  17
ATOM     17  CB  ALA A   6       7.885  76.508 -14.281  0.00  0.00    +0.098 C 
BRANCH  17  18
ATOM     18  CA  ALA A   6       8.925  76.268 -15.375  0.00  0.00    +0.160 C 
BRANCH  18  20
ATOM     19  C   SER A   5      11.061  75.105 -15.480  0.00  0.00    +0.241 C 
ATOM     20  N   ALA A   6      10.199  75.850 -14.795  0.00  0.00    -0.296 N 
ATOM     21  H   ALA A   6      10.437  76.142 -13.825  0.00  0.00    +0.150 HD
ATOM     22  O   SER A   5      10.854  74.737 -16.633  0.00  0.00    -0.273 OA
BRANCH  19  23
ATOM     23  CA  SER A   5      12.342  74.695 -14.761  0.00  0.00    +0.149 C 
BRANCH  23  26
ATOM     24  C   VAL A   4      11.838  72.950 -13.129  0.00  0.00    +0.241 C 
ATOM     25  O   VAL A   4      11.759  73.749 -12.198  0.00  0.00    -0.273 OA
ATOM     26  N   SER A   5      12.130  73.307 -14.374  0.00  0.00    -0.297 N 
ATOM     27  H   SER A   5      12.210  72.567 -15.101  0.00  0.00    +0.150 HD
BRANCH  24  34
ATOM     28  C   ALA A   3      12.790  70.976 -10.810  0.00  0.00    +0.246 C 
ATOM     29  O   ALA A   3      13.881  71.194 -11.341  0.00  0.00    -0.273 OA
ATOM     30  N   VAL A   4      11.640  71.081 -11.493  0.00  0.00    -0.272 N 
ATOM     31  CD  VAL A   4      10.282  70.767 -11.011  0.00  0.00    +0.094 C 
ATOM     32  CG  VAL A   4       9.407  71.325 -12.117  0.00  0.00    +0.024 C 
ATOM     33  CB  VAL A   4      10.211  71.041 -13.341  0.00  0.00    +0.031 C 
ATOM     34  CA  VAL A   4      11.609  71.462 -12.908  0.00  0.00    +0.152 C 
BRANCH  28  35
ATOM     35  CA  ALA A   3      12.727  70.576  -9.349  0.00  0.00    +0.176 C 
BRANCH  35  37
ATOM     36  C   PRO A   2      14.542  69.053  -8.904  0.00  0.00    +0.241 C 
ATOM     37  N   ALA A   3      14.054  70.287  -8.842  0.00  0.00    -0.295 N 
ATOM     38  H   ALA A   3      14.627  71.050  -8.428  0.00  0.00    +0.150 HD
ATOM     39  O   PRO A   2      13.910  68.103  -9.381  0.00  0.00    -0.273 OA
BRANCH  36  40
ATOM     40  CA  PRO A   2      15.954  68.867  -8.355  0.00  0.00    +0.148 C 
BRANCH  40  43
ATOM     41  C   PHE A   1      16.505  68.395  -6.037  0.00  0.00    +0.241 C 
ATOM     42  O   PHE A   1      16.925  69.536  -5.860  0.00  0.00    -0.274 OA
ATOM     43  N   PRO A   2      16.008  67.983  -7.196  0.00  0.00    -0.297 N 
ATOM     44  H   PRO A   2      15.650  67.010  -7.280  0.00  0.00    +0.150 HD
BRANCH  41  45
ATOM     45  CA  PHE A   1      16.534  67.375  -4.909  0.00  0.00    +0.172 C 
BRANCH  45  46
ATOM     46  N   PHE A   1      17.584  67.750  -3.966  0.00  0.00    -0.236 NA
ATOM     47  H   PHE A   1      17.607  68.722  -3.598  0.00  0.00    +0.142 HD
ENDBRANCH  45  46
BRANCH  45  48
ATOM     48  CB  PHE A   1      15.131  67.311  -4.241  0.00  0.00    +0.135 C 
ATOM     49  CG2 PHE A   1      14.569  68.713  -3.993  0.00  0.00    +0.034 C 
BRANCH  48  50
ATOM     50  OG1 PHE A   1      14.232  66.605  -5.106  0.00  0.00    -0.383 OA
ATOM     51  HG1 PHE A   1      13.337  66.561  -4.685  0.00  0.00    +0.210 HD
ENDBRANCH  48  50
ENDBRANCH  45  48
ENDBRANCH  41  45
ENDBRANCH  40  43
BRANCH  40  52
ATOM     52  CB  PRO A   2      16.868  68.330  -9.490  0.00  0.00    +0.027 C 
ATOM     53  CG2 PRO A   2      16.517  66.870  -9.799  0.00  0.00    +0.002 C 
ATOM     54  CG1 PRO A   2      16.722  69.189 -10.741  0.00  0.00    +0.002 C 
ENDBRANCH  40  52
ENDBRANCH  36  40
ENDBRANCH  35  37
ENDBRANCH  28  35
ENDBRANCH  24  34
ENDBRANCH  23  26
BRANCH  23  55
ATOM     55  CB  SER A   5      13.540  74.819 -15.723  0.00  0.00    +0.027 C 
ATOM     56  CG2 SER A   5      13.751  76.274 -16.112  0.00  0.00    +0.002 C 
BRANCH  55  57
ATOM     57  CG1 SER A   5      14.799  74.275 -15.047  0.00  0.00    +0.002 C 
ATOM     58  CD1 SER A   5      16.005  74.191 -15.957  0.00  0.00    +0.000 C 
ENDBRANCH  55  57
ENDBRANCH  23  55
ENDBRANCH  19  23
ENDBRANCH  18  20
BRANCH  18  59
ATOM     59  C   ALA A   6       8.992  77.515 -16.238  0.00  0.00    +0.242 C 
ATOM     60  N   SER A   7       9.865  78.447 -15.873  0.00  0.00    -0.296 N 
ATOM     61  H   SER A   7      10.465  78.284 -15.039  0.00  0.00    +0.150 HD
ATOM     62  O   ALA A   6       8.250  77.634 -17.211  0.00  0.00    -0.273 OA
BRANCH  60  63
ATOM     63  CA  SER A   7      10.000  79.693 -16.617  0.00  0.00    +0.166 C 
BRANCH  63  64
ATOM     64  CB  SER A   7       8.639  80.354 -16.823  0.00  0.00    +0.229 C 
ATOM     65  OG  SER A   7       8.308  80.784 -17.928  0.00  0.00    -0.286 OA
ENDBRANCH  63  64
BRANCH  63  66
ATOM     66  C   SER A   7      10.659  79.433 -17.974  0.00  0.00    +0.165 C 
BRANCH  66  67
ATOM     67  O   SER A   7      11.983  78.958 -17.810  0.00  0.00    -0.380 OA
ATOM     68  H   SER A   7      12.387  78.798 -18.699  0.00  0.00    +0.211 HD
ENDBRANCH  66  67
ENDBRANCH  63  66
ENDBRANCH  60  63
ENDBRANCH  18  59
ENDBRANCH  17  18
ENDBRANCH  16  17
ENDBRANCH  15  16
ENDBRANCH  14  15
ENDBRANCH  11  14
ENDBRANCH   7  11
ENDBRANCH   6   9
ENDBRANCH   2   6
ENDBRANCH   1   4
BRANCH   1  69
ATOM     69  N   TYR A   9      13.991  79.022 -11.091  0.00  0.00    -0.297 N 
ATOM     70  H   TYR A   9      14.162  78.679 -10.124  0.00  0.00    +0.150 HD
ATOM     71  C   ILE A   8      14.432  80.227 -11.445  0.00  0.00    +0.241 C 
ATOM     72  O   ILE A   8      14.241  80.697 -12.565  0.00  0.00    -0.273 OA
BRANCH  71  73
ATOM     73  CA  ILE A   8      15.197  81.036 -10.393  0.00  0.00    +0.149 C 
BRANCH  73  74
ATOM     74  N   ILE A   8      14.625  80.938  -9.059  0.00  0.00    -0.297 N 
ATOM     75  H   ILE A   8      15.244  80.664  -8.269  0.00  0.00    +0.150 HD
ATOM     76  C   SER A   7      13.344  81.184  -8.810  0.00  0.00    +0.243 C 
ATOM     77  O   SER A   7      12.537  81.507  -9.684  0.00  0.00    -0.273 OA
BRANCH  76  78
ATOM     78  CA  SER A   7      12.917  81.037  -7.364  0.00  0.00    +0.176 C 
BRANCH  78  79
ATOM     79  N   SER A   7      11.989  79.941  -7.162  0.00  0.00    -0.295 N 
ATOM     80  H   SER A   7      12.346  78.977  -7.007  0.00  0.00    +0.150 HD
ATOM     81  C   ALA A   6      10.683  80.173  -7.175  0.00  0.00    +0.241 C 
ATOM     82  O   ALA A   6      10.211  81.293  -7.355  0.00  0.00    -0.273 OA
BRANCH  81  83
ATOM     83  CA  ALA A   6       9.773  78.975  -6.947  0.00  0.00    +0.149 C 
ATOM     84  CB  ALA A   6       9.094  79.097  -5.589  0.00  0.00    +0.031 C 
BRANCH  83  85
ATOM     85  N   ALA A   6      10.496  77.709  -7.036  0.00  0.00    -0.297 N 
ATOM     86  H   ALA A   6      10.851  77.257  -6.169  0.00  0.00    +0.150 HD
ATOM     87  C   SER A   5      10.705  77.129  -8.213  0.00  0.00    +0.243 C 
ATOM     88  O   SER A   5      10.326  77.629  -9.272  0.00  0.00    -0.273 OA
BRANCH  87  89
ATOM     89  CA  SER A   5      11.459  75.802  -8.222  0.00  0.00    +0.178 C 
BRANCH  89  90
ATOM     90  N   SER A   5      11.824  75.241  -6.919  0.00  0.00    -0.295 N 
ATOM     91  C   VAL A   4      10.956  74.658  -6.091  0.00  0.00    +0.241 C 
ATOM     92  O   VAL A   4       9.755  74.549  -6.325  0.00  0.00    -0.273 OA
ATOM     93  H   SER A   5      12.819  75.301  -6.622  0.00  0.00    +0.150 HD
BRANCH  91  94
ATOM     94  CA  VAL A   4      11.545  74.113  -4.798  0.00  0.00    +0.149 C 
BRANCH  94  95
ATOM     95  N   VAL A   4      10.925  74.650  -3.590  0.00  0.00    -0.297 N 
ATOM     96  H   VAL A   4      10.622  73.992  -2.843  0.00  0.00    +0.150 HD
ATOM     97  C   ALA A   3      10.736  75.955  -3.416  0.00  0.00    +0.241 C 
ATOM     98  O   ALA A   3      11.038  76.793  -4.264  0.00  0.00    -0.273 OA
BRANCH  97  99
ATOM     99  CA  ALA A   3      10.102  76.374  -2.091  0.00  0.00    +0.149 C 
ATOM    100  CB  ALA A   3       9.528  77.774  -2.201  0.00  0.00    +0.031 C 
BRANCH  99 101
ATOM    101  N   ALA A   3      11.106  76.326  -1.031  0.00  0.00    -0.297 N 
ATOM    102  C   PRO A   2      11.401  75.176  -0.436  0.00  0.00    +0.241 C 
ATOM    103  O   PRO A   2      10.850  74.119  -0.747  0.00  0.00    -0.273 OA
ATOM    104  H   ALA A   3      11.593  77.198  -0.740  0.00  0.00    +0.150 HD
BRANCH 102 105
ATOM    105  CA  PRO A   2      12.474  75.177   0.663  0.00  0.00    +0.152 C 
ATOM    106  N   PRO A   2      12.438  73.792   1.140  0.00  0.00    -0.272 N 
ATOM    107  C   PHE A   1      11.798  73.399   2.255  0.00  0.00    +0.242 C 
ATOM    108  O   PHE A   1      11.201  74.193   2.981  0.00  0.00    -0.273 OA
ATOM    109  CD  PRO A   2      13.463  72.988   0.445  0.00  0.00    +0.094 C 
ATOM    110  CG  PRO A   2      13.998  73.954  -0.606  0.00  0.00    +0.024 C 
ATOM    111  CB  PRO A   2      13.867  75.290   0.074  0.00  0.00    +0.031 C 
BRANCH 107 112
ATOM    112  CA  PHE A   1      11.835  71.907   2.589  0.00  0.00    +0.149 C 
BRANCH 112 113
ATOM    113  N   PHE A   1      11.744  71.629   4.024  0.00  0.00    -0.238 NA
ATOM    114  H   PHE A   1      10.850  71.840   4.511  0.00  0.00    +0.142 HD
ENDBRANCH 112 113
BRANCH 112 115
ATOM    115  CB  PHE A   1      10.647  71.295   1.845  0.00  0.00    +0.053 C 
BRANCH 115 116
ATOM    116  CG  PHE A   1      10.655  69.800   1.773  0.00  0.00    -0.020 A 
ATOM    117  CD2 PHE A   1      10.357  69.034   2.892  0.00  0.00    -0.004 A 
ATOM    118  CE2 PHE A   1      10.309  67.645   2.810  0.00  0.00    -0.000 A 
ATOM    119  CZ  PHE A   1      10.561  67.010   1.599  0.00  0.00    -0.000 A 
ATOM    120  CE1 PHE A   1      10.864  67.770   0.471  0.00  0.00    -0.000 A 
ATOM    121  CD1 PHE A   1      10.910  69.157   0.563  0.00  0.00    -0.004 A 
ENDBRANCH 115 116
ENDBRANCH 112 115
ENDBRANCH 107 112
ENDBRANCH 102 105
ENDBRANCH  99 101
ENDBRANCH  97  99
ENDBRANCH  94  95
BRANCH  94 122
ATOM    122  CB  VAL A   4      11.448  72.570  -4.845  0.00  0.00    +0.027 C 
ATOM    123  CG2 VAL A   4      12.017  71.972  -3.572  0.00  0.00    +0.002 C 
ATOM    124  CG1 VAL A   4      12.195  72.040  -6.062  0.00  0.00    +0.002 C 
ENDBRANCH  94 122
ENDBRANCH  91  94
ENDBRANCH  89  90
BRANCH  89 125
ATOM    125  CB  SER A   5      10.658  74.778  -9.034  0.00  0.00    +0.166 C 
BRANCH 125 126
ATOM    126  OG  SER A   5      11.473  73.684  -9.432  0.00  0.00    -0.380 OA
ATOM    127  H   SER A   5      12.219  74.016  -9.991  0.00  0.00    +0.211 HD
ENDBRANCH 125 126
ENDBRANCH  89 125
ENDBRANCH  87  89
ENDBRANCH  83  85
ENDBRANCH  81  83
ENDBRANCH  78  79
ENDBRANCH  76  78
ENDBRANCH  73  74
BRANCH  73 128
ATOM    128  CB  ILE A   8      16.673  80.579 -10.376  0.00  0.00    +0.027 C 
ATOM    129  CG2 ILE A   8      17.249  80.608 -11.778  0.00  0.00    +0.002 C 
BRANCH 128 130
ATOM    130  CG1 ILE A   8      17.483  81.489  -9.453  0.00  0.00    +0.002 C 
ATOM    131  CD1 ILE A   8      18.938  81.080  -9.308  0.00  0.00    +0.000 C 
ENDBRANCH 128 130
ENDBRANCH  73 128
ENDBRANCH  71  73
ENDBRANCH   1  69
BRANCH   1 132
ATOM    132  CB  TYR A   9      13.261  76.726 -11.535  0.00  0.00    +0.055 C 
BRANCH 132 133
ATOM    133  CG  TYR A   9      14.609  76.043 -11.683  0.00  0.00    -0.020 A 
ATOM    134  CD2 TYR A   9      14.851  74.800 -11.106  0.00  0.00    -0.001 A 
ATOM    135  CE2 TYR A   9      16.068  74.145 -11.290  0.00  0.00    +0.036 A 
ATOM    136  CZ  TYR A   9      17.057  74.738 -12.059  0.00  0.00    +0.134 A 
ATOM    137  CE1 TYR A   9      16.845  75.978 -12.637  0.00  0.00    +0.036 A 
ATOM    138  CD1 TYR A   9      15.626  76.622 -12.448  0.00  0.00    -0.001 A 
BRANCH 136 139
ATOM    139  OH  TYR A   9      18.242  74.076 -12.275  0.00  0.00    -0.506 OA
ATOM    140  HH  TYR A   9      18.833  74.635 -12.840  0.00  0.00    +0.292 HD
ENDBRANCH 136 139
ENDBRANCH 132 133
ENDBRANCH   1 132
TORSDOF 56
REMARK  Name = ../refined-set-2016/2bfr/2bfr_pocket.pdb
REMARK  159 active torsions:
REMARK  status: ('A' for Active; 'I' for Inactive)
REMARK    1  A    between atoms: _1  and  _3
REMARK    2  A    between atoms: _3  and  _4
REMARK    3  A    between atoms: _7  and  _9
REMARK    4  A    between atoms: _9  and  _10
REMARK    5  A    between atoms: _9  and  _12
REMARK    6  A    between atoms: _12  and  _13
REMARK    7  A    between atoms: _13  and  _14
REMARK    8  A    between atoms: _19  and  _21
REMARK    9  A    between atoms: _21  and  _22
REMARK   10  A    between atoms: _24  and  _26
REMARK   11  A    between atoms: _26  and  _27
REMARK   12  A    between atoms: _26  and  _29
REMARK   13  A    between atoms: _29  and  _30
REMARK   14  A    between atoms: _33  and  _35
REMARK   15  A    between atoms: _35  and  _36
REMARK   16  A    between atoms: _35  and  _38
REMARK   17  A    between atoms: _38  and  _39
REMARK   18  A    between atoms: _42  and  _44
REMARK   19  A    between atoms: _44  and  _45
REMARK   20  A    between atoms: _44  and  _47
REMARK   21  A    between atoms: _47  and  _48
REMARK   22  A    between atoms: _51  and  _53
REMARK   23  A    between atoms: _53  and  _54
REMARK   24  A    between atoms: _53  and  _56
REMARK   25  A    between atoms: _56  and  _57
REMARK   26  A    between atoms: _57  and  _58
REMARK   27  A    between atoms: _63  and  _65
REMARK   28  A    between atoms: _65  and  _66
REMARK   29  A    between atoms: _65  and  _68
REMARK   30  A    between atoms: _68  and  _69
REMARK   31  A    between atoms: _74  and  _75
REMARK   32  A    between atoms: _77  and  _79
REMARK   33  A    between atoms: _79  and  _80
REMARK   34  A    between atoms: _79  and  _82
REMARK   35  A    between atoms: _85  and  _87
REMARK   36  A    between atoms: _87  and  _88
REMARK   37  A    between atoms: _87  and  _90
REMARK   38  A    between atoms: _90  and  _91
REMARK   39  A    between atoms: _96  and  _98
REMARK   40  A    between atoms: _98  and  _99
REMARK   41  A    between atoms: _102  and  _104
REMARK   42  A    between atoms: _104  and  _105
REMARK   43  A    between atoms: _108  and  _110
REMARK   44  A    between atoms: _110  and  _111
REMARK   45  A    between atoms: _110  and  _113
REMARK   46  A    between atoms: _113  and  _114
REMARK   47  A    between atoms: _119  and  _121
REMARK   48  A    between atoms: _121  and  _122
REMARK   49  A    between atoms: _124  and  _126
REMARK   50  A    between atoms: _126  and  _127
REMARK   51  A    between atoms: _129  and  _131
REMARK   52  A    between atoms: _131  and  _132
REMARK   53  A    between atoms: _131  and  _134
REMARK   54  A    between atoms: _137  and  _139
REMARK   55  A    between atoms: _139  and  _140
REMARK   56  A    between atoms: _143  and  _145
REMARK   57  A    between atoms: _145  and  _146
REMARK   58  A    between atoms: _145  and  _148
REMARK   59  A    between atoms: _148  and  _149
REMARK   60  A    between atoms: _154  and  _155
REMARK   61  A    between atoms: _157  and  _159
REMARK   62  A    between atoms: _159  and  _160
REMARK   63  A    between atoms: _163  and  _165
REMARK   64  A    between atoms: _165  and  _166
REMARK   65  A    between atoms: _165  and  _168
REMARK   66  A    between atoms: _168  and  _169
REMARK   67  A    between atoms: _172  and  _174
REMARK   68  A    between atoms: _174  and  _175
REMARK   69  A    between atoms: _178  and  _180
REMARK   70  A    between atoms: _180  and  _181
REMARK   71  A    between atoms: _180  and  _183
REMARK   72  A    between atoms: _183  and  _184
REMARK   73  A    between atoms: _187  and  _189
REMARK   74  A    between atoms: _189  and  _190
REMARK   75  A    between atoms: _189  and  _192
REMARK   76  A    between atoms: _195  and  _197
REMARK   77  A    between atoms: _197  and  _198
REMARK   78  A    between atoms: _201  and  _202
REMARK   79  A    between atoms: _207  and  _209
REMARK   80  A    between atoms: _209  and  _210
REMARK   81  A    between atoms: _209  and  _212
REMARK   82  A    between atoms: _212  and  _213
REMARK   83  A    between atoms: _216  and  _218
REMARK   84  A    between atoms: _218  and  _219
REMARK   85  A    between atoms: _218  and  _221
REMARK   86  A    between atoms: _221  and  _222
REMARK   87  A    between atoms: _222  and  _326
REMARK   88  A    between atoms: _223  and  _225
REMARK   89  A    between atoms: _225  and  _226
REMARK   90  A    between atoms: _225  and  _228
REMARK   91  A    between atoms: _228  and  _229
REMARK   92  A    between atoms: _231  and  _233
REMARK   93  A    between atoms: _233  and  _234
REMARK   94  A    between atoms: _233  and  _236
REMARK   95  A    between atoms: _236  and  _237
REMARK   96  A    between atoms: _240  and  _242
REMARK   97  A    between atoms: _242  and  _243
REMARK   98  A    between atoms: _242  and  _245
REMARK   99  A    between atoms: _245  and  _246
REMARK  100  A    between atoms: _253  and  _254
REMARK  101  A    between atoms: _259  and  _261
REMARK  102  A    between atoms: _261  and  _262
REMARK  103  A    between atoms: _265  and  _267
REMARK  104  A    between atoms: _267  and  _268
REMARK  105  A    between atoms: _267  and  _270
REMARK  106  A    between atoms: _273  and  _275
REMARK  107  A    between atoms: _275  and  _276
REMARK  108  A    between atoms: _275  and  _278
REMARK  109  A    between atoms: _278  and  _279
REMARK  110  A    between atoms: _281  and  _283
REMARK  111  A    between atoms: _283  and  _284
REMARK  112  A    between atoms: _287  and  _289
REMARK  113  A    between atoms: _289  and  _290
REMARK  114  A    between atoms: _292  and  _294
REMARK  115  A    between atoms: _294  and  _295
REMARK  116  A    between atoms: _294  and  _297
REMARK  117  A    between atoms: _297  and  _298
REMARK  118  A    between atoms: _301  and  _303
REMARK  119  A    between atoms: _303  and  _304
REMARK  120  A    between atoms: _303  and  _306
REMARK  121  A    between atoms: _306  and  _307
REMARK  122  A    between atoms: _312  and  _313
REMARK  123  A    between atoms: _315  and  _317
REMARK  124  A    between atoms: _317  and  _318
REMARK  125  A    between atoms: _320  and  _322
REMARK  126  A    between atoms: _322  and  _323
REMARK  127  A    between atoms: _322  and  _325
REMARK  128  A    between atoms: _325  and  _326
REMARK  129  A    between atoms: _327  and  _329
REMARK  130  A    between atoms: _329  and  _330
REMARK  131  A    between atoms: _329  and  _332
REMARK  132  A    between atoms: _332  and  _333
REMARK  133  A    between atoms: _336  and  _338
REMARK  134  A    between atoms: _338  and  _339
REMARK  135  A    between atoms: _338  and  _341
REMARK  136  A    between atoms: _344  and  _346
REMARK  137  A    between atoms: _346  and  _347
REMARK  138  A    between atoms: _346  and  _349
REMARK  139  A    between atoms: _349  and  _350
REMARK  140  A    between atoms: _353  and  _355
REMARK  141  A    between atoms: _355  and  _356
REMARK  142  A    between atoms: _355  and  _358
REMARK  143  A    between atoms: _361  and  _363
REMARK  144  A    between atoms: _363  and  _364
REMARK  145  A    between atoms: _363  and  _366
REMARK  146  A    between atoms: _366  and  _367
REMARK  147  A    between atoms: _370  and  _372
REMARK  148  A    between atoms: _372  and  _373
REMARK  149  A    between atoms: _372  and  _375
REMARK  150  A    between atoms: _375  and  _376
REMARK  151  A    between atoms: _381  and  _382
REMARK  152  A    between atoms: _384  and  _386
REMARK  153  A    between atoms: _386  and  _387
REMARK  154  A    between atoms: _386  and  _389
REMARK  155  A    between atoms: _389  and  _390
REMARK  156  A    between atoms: _393  and  _395
REMARK  157  A    between atoms: _395  and  _396
REMARK  158  A    between atoms: _395  and  _398
REMARK  159  A    between atoms: _398  and  _399
REMARK                            x       y       z     vdW  Elec       q    Type
REMARK                         _______ _______ _______ _____ _____    ______ ____
ROOT
ATOM      1  CA  LEU A   1       7.952  69.043  -9.000  0.00  0.00    +0.133 C 
ENDROOT
BRANCH   1   2
ATOM      2  N   LEU A   1       7.828  68.346 -10.277  0.00  0.00    -0.239 NA
ATOM      3  H   LEU A   1       7.132  68.677 -10.975  0.00  0.00    +0.142 HD
ENDBRANCH   1   2
BRANCH   1   4
ATOM      4  C   LEU A   1       7.445  68.144  -7.869  0.00  0.00    +0.224 C 
ATOM      5  O   LEU A   1       7.971  68.158  -6.758  0.00  0.00    -0.287 OA
ENDBRANCH   1   4
BRANCH   1   6
ATOM      6  CB  LEU A   1       7.152  70.347  -9.017  0.00  0.00    +0.025 C 
BRANCH   6   7
ATOM      7  CG  LEU A   1       7.207  71.170  -7.726  0.00  0.00    +0.002 C 
ATOM      8  CD2 LEU A   1       8.648  71.548  -7.409  0.00  0.00    +0.000 C 
ATOM      9  CD1 LEU A   1       6.350  72.421  -7.875  0.00  0.00    +0.000 C 
ENDBRANCH   6   7
ENDBRANCH   1   6
TORSDOF 4
REMARK  Name = ../refined-set-2016/2bfr/2bfr_pocket.pdb
REMARK  159 active torsions:
REMARK  status: ('A' for Active; 'I' for Inactive)
REMARK    1  A    between atoms: _1  and  _3
REMARK    2  A    between atoms: _3  and  _4
REMARK    3  A    between atoms: _7  and  _9
REMARK    4  A    between atoms: _9  and  _10
REMARK    5  A    between atoms: _9  and  _12
REMARK    6  A    between atoms: _12  and  _13
REMARK    7  A    between atoms: _13  and  _14
REMARK    8  A    between atoms: _19  and  _21
REMARK    9  A    between atoms: _21  and  _22
REMARK   10  A    between atoms: _24  and  _26
REMARK   11  A    between atoms: _26  and  _27
REMARK   12  A    between atoms: _26  and  _29
REMARK   13  A    between atoms: _29  and  _30
REMARK   14  A    between atoms: _33  and  _35
REMARK   15  A    between atoms: _35  and  _36
REMARK   16  A    between atoms: _35  and  _38
REMARK   17  A    between atoms: _38  and  _39
REMARK   18  A    between atoms: _42  and  _44
REMARK   19  A    between atoms: _44  and  _45
REMARK   20  A    between atoms: _44  and  _47
REMARK   21  A    between atoms: _47  and  _48
REMARK   22  A    between atoms: _51  and  _53
REMARK   23  A    between atoms: _53  and  _54
REMARK   24  A    between atoms: _53  and  _56
REMARK   25  A    between atoms: _56  and  _57
REMARK   26  A    between atoms: _57  and  _58
REMARK   27  A    between atoms: _63  and  _65
REMARK   28  A    between atoms: _65  and  _66
REMARK   29  A    between atoms: _65  and  _68
REMARK   30  A    between atoms: _68  and  _69
REMARK   31  A    between atoms: _74  and  _75
REMARK   32  A    between atoms: _77  and  _79
REMARK   33  A    between atoms: _79  and  _80
REMARK   34  A    between atoms: _79  and  _82
REMARK   35  A    between atoms: _85  and  _87
REMARK   36  A    between atoms: _87  and  _88
REMARK   37  A    between atoms: _87  and  _90
REMARK   38  A    between atoms: _90  and  _91
REMARK   39  A    between atoms: _96  and  _98
REMARK   40  A    between atoms: _98  and  _99
REMARK   41  A    between atoms: _102  and  _104
REMARK   42  A    between atoms: _104  and  _105
REMARK   43  A    between atoms: _108  and  _110
REMARK   44  A    between atoms: _110  and  _111
REMARK   45  A    between atoms: _110  and  _113
REMARK   46  A    between atoms: _113  and  _114
REMARK   47  A    between atoms: _119  and  _121
REMARK   48  A    between atoms: _121  and  _122
REMARK   49  A    between atoms: _124  and  _126
REMARK   50  A    between atoms: _126  and  _127
REMARK   51  A    between atoms: _129  and  _131
REMARK   52  A    between atoms: _131  and  _132
REMARK   53  A    between atoms: _131  and  _134
REMARK   54  A    between atoms: _137  and  _139
REMARK   55  A    between atoms: _139  and  _140
REMARK   56  A    between atoms: _143  and  _145
REMARK   57  A    between atoms: _145  and  _146
REMARK   58  A    between atoms: _145  and  _148
REMARK   59  A    between atoms: _148  and  _149
REMARK   60  A    between atoms: _154  and  _155
REMARK   61  A    between atoms: _157  and  _159
REMARK   62  A    between atoms: _159  and  _160
REMARK   63  A    between atoms: _163  and  _165
REMARK   64  A    between atoms: _165  and  _166
REMARK   65  A    between atoms: _165  and  _168
REMARK   66  A    between atoms: _168  and  _169
REMARK   67  A    between atoms: _172  and  _174
REMARK   68  A    between atoms: _174  and  _175
REMARK   69  A    between atoms: _178  and  _180
REMARK   70  A    between atoms: _180  and  _181
REMARK   71  A    between atoms: _180  and  _183
REMARK   72  A    between atoms: _183  and  _184
REMARK   73  A    between atoms: _187  and  _189
REMARK   74  A    between atoms: _189  and  _190
REMARK   75  A    between atoms: _189  and  _192
REMARK   76  A    between atoms: _195  and  _197
REMARK   77  A    between atoms: _197  and  _198
REMARK   78  A    between atoms: _201  and  _202
REMARK   79  A    between atoms: _207  and  _209
REMARK   80  A    between atoms: _209  and  _210
REMARK   81  A    between atoms: _209  and  _212
REMARK   82  A    between atoms: _212  and  _213
REMARK   83  A    between atoms: _216  and  _218
REMARK   84  A    between atoms: _218  and  _219
REMARK   85  A    between atoms: _218  and  _221
REMARK   86  A    between atoms: _221  and  _222
REMARK   87  A    between atoms: _222  and  _326
REMARK   88  A    between atoms: _223  and  _225
REMARK   89  A    between atoms: _225  and  _226
REMARK   90  A    between atoms: _225  and  _228
REMARK   91  A    between atoms: _228  and  _229
REMARK   92  A    between atoms: _231  and  _233
REMARK   93  A    between atoms: _233  and  _234
REMARK   94  A    between atoms: _233  and  _236
REMARK   95  A    between atoms: _236  and  _237
REMARK   96  A    between atoms: _240  and  _242
REMARK   97  A    between atoms: _242  and  _243
REMARK   98  A    between atoms: _242  and  _245
REMARK   99  A    between atoms: _245  and  _246
REMARK  100  A    between atoms: _253  and  _254
REMARK  101  A    between atoms: _259  and  _261
REMARK  102  A    between atoms: _261  and  _262
REMARK  103  A    between atoms: _265  and  _267
REMARK  104  A    between atoms: _267  and  _268
REMARK  105  A    between atoms: _267  and  _270
REMARK  106  A    between atoms: _273  and  _275
REMARK  107  A    between atoms: _275  and  _276
REMARK  108  A    between atoms: _275  and  _278
REMARK  109  A    between atoms: _278  and  _279
REMARK  110  A    between atoms: _281  and  _283
REMARK  111  A    between atoms: _283  and  _284
REMARK  112  A    between atoms: _287  and  _289
REMARK  113  A    between atoms: _289  and  _290
REMARK  114  A    between atoms: _292  and  _294
REMARK  115  A    between atoms: _294  and  _295
REMARK  116  A    between atoms: _294  and  _297
REMARK  117  A    between atoms: _297  and  _298
REMARK  118  A    between atoms: _301  and  _303
REMARK  119  A    between atoms: _303  and  _304
REMARK  120  A    between atoms: _303  and  _306
REMARK  121  A    between atoms: _306  and  _307
REMARK  122  A    between atoms: _312  and  _313
REMARK  123  A    between atoms: _315  and  _317
REMARK  124  A    between atoms: _317  and  _318
REMARK  125  A    between atoms: _320  and  _322
REMARK  126  A    between atoms: _322  and  _323
REMARK  127  A    between atoms: _322  and  _325
REMARK  128  A    between atoms: _325  and  _326
REMARK  129  A    between atoms: _327  and  _329
REMARK  130  A    between atoms: _329  and  _330
REMARK  131  A    between atoms: _329  and  _332
REMARK  132  A    between atoms: _332  and  _333
REMARK  133  A    between atoms: _336  and  _338
REMARK  134  A    between atoms: _338  and  _339
REMARK  135  A    between atoms: _338  and  _341
REMARK  136  A    between atoms: _344  and  _346
REMARK  137  A    between atoms: _346  and  _347
REMARK  138  A    between atoms: _346  and  _349
REMARK  139  A    between atoms: _349  and  _350
REMARK  140  A    between atoms: _353  and  _355
REMARK  141  A    between atoms: _355  and  _356
REMARK  142  A    between atoms: _355  and  _358
REMARK  143  A    between atoms: _361  and  _363
REMARK  144  A    between atoms: _363  and  _364
REMARK  145  A    between atoms: _363  and  _366
REMARK  146  A    between atoms: _366  and  _367
REMARK  147  A    between atoms: _370  and  _372
REMARK  148  A    between atoms: _372  and  _373
REMARK  149  A    between atoms: _372  and  _375
REMARK  150  A    between atoms: _375  and  _376
REMARK  151  A    between atoms: _381  and  _382
REMARK  152  A    between atoms: _384  and  _386
REMARK  153  A    between atoms: _386  and  _387
REMARK  154  A    between atoms: _386  and  _389
REMARK  155  A    between atoms: _389  and  _390
REMARK  156  A    between atoms: _393  and  _395
REMARK  157  A    between atoms: _395  and  _396
REMARK  158  A    between atoms: _395  and  _398
REMARK  159  A    between atoms: _398  and  _399
REMARK                            x       y       z     vdW  Elec       q    Type
REMARK                         _______ _______ _______ _____ _____    ______ ____
ROOT
ATOM      1  CA  LEU A   1       4.801  79.895  -5.876  0.00  0.00    +0.133 C 
ENDROOT
BRANCH   1   2
ATOM      2  N   LEU A   1       4.710  80.222  -7.293  0.00  0.00    -0.239 NA
ATOM      3  H   LEU A   1       4.877  81.203  -7.595  0.00  0.00    +0.142 HD
ENDBRANCH   1   2
BRANCH   1   4
ATOM      4  C   LEU A   1       3.579  79.154  -5.354  0.00  0.00    +0.224 C 
ATOM      5  O   LEU A   1       3.703  78.125  -4.692  0.00  0.00    -0.287 OA
ENDBRANCH   1   4
BRANCH   1   6
ATOM      6  CB  LEU A   1       5.016  81.166  -5.051  0.00  0.00    +0.025 C 
BRANCH   6   7
ATOM      7  CG  LEU A   1       5.153  80.975  -3.538  0.00  0.00    +0.002 C 
ATOM      8  CD2 LEU A   1       5.289  82.331  -2.865  0.00  0.00    +0.000 C 
ATOM      9  CD1 LEU A   1       6.368  80.105  -3.230  0.00  0.00    +0.000 C 
ENDBRANCH   6   7
ENDBRANCH   1   6
TORSDOF 4
REMARK  Name = ../refined-set-2016/2bfr/2bfr_pocket.pdb
REMARK  159 active torsions:
REMARK  status: ('A' for Active; 'I' for Inactive)
REMARK    1  A    between atoms: _1  and  _3
REMARK    2  A    between atoms: _3  and  _4
REMARK    3  A    between atoms: _7  and  _9
REMARK    4  A    between atoms: _9  and  _10
REMARK    5  A    between atoms: _9  and  _12
REMARK    6  A    between atoms: _12  and  _13
REMARK    7  A    between atoms: _13  and  _14
REMARK    8  A    between atoms: _19  and  _21
REMARK    9  A    between atoms: _21  and  _22
REMARK   10  A    between atoms: _24  and  _26
REMARK   11  A    between atoms: _26  and  _27
REMARK   12  A    between atoms: _26  and  _29
REMARK   13  A    between atoms: _29  and  _30
REMARK   14  A    between atoms: _33  and  _35
REMARK   15  A    between atoms: _35  and  _36
REMARK   16  A    between atoms: _35  and  _38
REMARK   17  A    between atoms: _38  and  _39
REMARK   18  A    between atoms: _42  and  _44
REMARK   19  A    between atoms: _44  and  _45
REMARK   20  A    between atoms: _44  and  _47
REMARK   21  A    between atoms: _47  and  _48
REMARK   22  A    between atoms: _51  and  _53
REMARK   23  A    between atoms: _53  and  _54
REMARK   24  A    between atoms: _53  and  _56
REMARK   25  A    between atoms: _56  and  _57
REMARK   26  A    between atoms: _57  and  _58
REMARK   27  A    between atoms: _63  and  _65
REMARK   28  A    between atoms: _65  and  _66
REMARK   29  A    between atoms: _65  and  _68
REMARK   30  A    between atoms: _68  and  _69
REMARK   31  A    between atoms: _74  and  _75
REMARK   32  A    between atoms: _77  and  _79
REMARK   33  A    between atoms: _79  and  _80
REMARK   34  A    between atoms: _79  and  _82
REMARK   35  A    between atoms: _85  and  _87
REMARK   36  A    between atoms: _87  and  _88
REMARK   37  A    between atoms: _87  and  _90
REMARK   38  A    between atoms: _90  and  _91
REMARK   39  A    between atoms: _96  and  _98
REMARK   40  A    between atoms: _98  and  _99
REMARK   41  A    between atoms: _102  and  _104
REMARK   42  A    between atoms: _104  and  _105
REMARK   43  A    between atoms: _108  and  _110
REMARK   44  A    between atoms: _110  and  _111
REMARK   45  A    between atoms: _110  and  _113
REMARK   46  A    between atoms: _113  and  _114
REMARK   47  A    between atoms: _119  and  _121
REMARK   48  A    between atoms: _121  and  _122
REMARK   49  A    between atoms: _124  and  _126
REMARK   50  A    between atoms: _126  and  _127
REMARK   51  A    between atoms: _129  and  _131
REMARK   52  A    between atoms: _131  and  _132
REMARK   53  A    between atoms: _131  and  _134
REMARK   54  A    between atoms: _137  and  _139
REMARK   55  A    between atoms: _139  and  _140
REMARK   56  A    between atoms: _143  and  _145
REMARK   57  A    between atoms: _145  and  _146
REMARK   58  A    between atoms: _145  and  _148
REMARK   59  A    between atoms: _148  and  _149
REMARK   60  A    between atoms: _154  and  _155
REMARK   61  A    between atoms: _157  and  _159
REMARK   62  A    between atoms: _159  and  _160
REMARK   63  A    between atoms: _163  and  _165
REMARK   64  A    between atoms: _165  and  _166
REMARK   65  A    between atoms: _165  and  _168
REMARK   66  A    between atoms: _168  and  _169
REMARK   67  A    between atoms: _172  and  _174
REMARK   68  A    between atoms: _174  and  _175
REMARK   69  A    between atoms: _178  and  _180
REMARK   70  A    between atoms: _180  and  _181
REMARK   71  A    between atoms: _180  and  _183
REMARK   72  A    between atoms: _183  and  _184
REMARK   73  A    between atoms: _187  and  _189
REMARK   74  A    between atoms: _189  and  _190
REMARK   75  A    between atoms: _189  and  _192
REMARK   76  A    between atoms: _195  and  _197
REMARK   77  A    between atoms: _197  and  _198
REMARK   78  A    between atoms: _201  and  _202
REMARK   79  A    between atoms: _207  and  _209
REMARK   80  A    between atoms: _209  and  _210
REMARK   81  A    between atoms: _209  and  _212
REMARK   82  A    between atoms: _212  and  _213
REMARK   83  A    between atoms: _216  and  _218
REMARK   84  A    between atoms: _218  and  _219
REMARK   85  A    between atoms: _218  and  _221
REMARK   86  A    between atoms: _221  and  _222
REMARK   87  A    between atoms: _222  and  _326
REMARK   88  A    between atoms: _223  and  _225
REMARK   89  A    between atoms: _225  and  _226
REMARK   90  A    between atoms: _225  and  _228
REMARK   91  A    between atoms: _228  and  _229
REMARK   92  A    between atoms: _231  and  _233
REMARK   93  A    between atoms: _233  and  _234
REMARK   94  A    between atoms: _233  and  _236
REMARK   95  A    between atoms: _236  and  _237
REMARK   96  A    between atoms: _240  and  _242
REMARK   97  A    between atoms: _242  and  _243
REMARK   98  A    between atoms: _242  and  _245
REMARK   99  A    between atoms: _245  and  _246
REMARK  100  A    between atoms: _253  and  _254
REMARK  101  A    between atoms: _259  and  _261
REMARK  102  A    between atoms: _261  and  _262
REMARK  103  A    between atoms: _265  and  _267
REMARK  104  A    between atoms: _267  and  _268
REMARK  105  A    between atoms: _267  and  _270
REMARK  106  A    between atoms: _273  and  _275
REMARK  107  A    between atoms: _275  and  _276
REMARK  108  A    between atoms: _275  and  _278
REMARK  109  A    between atoms: _278  and  _279
REMARK  110  A    between atoms: _281  and  _283
REMARK  111  A    between atoms: _283  and  _284
REMARK  112  A    between atoms: _287  and  _289
REMARK  113  A    between atoms: _289  and  _290
REMARK  114  A    between atoms: _292  and  _294
REMARK  115  A    between atoms: _294  and  _295
REMARK  116  A    between atoms: _294  and  _297
REMARK  117  A    between atoms: _297  and  _298
REMARK  118  A    between atoms: _301  and  _303
REMARK  119  A    between atoms: _303  and  _304
REMARK  120  A    between atoms: _303  and  _306
REMARK  121  A    between atoms: _306  and  _307
REMARK  122  A    between atoms: _312  and  _313
REMARK  123  A    between atoms: _315  and  _317
REMARK  124  A    between atoms: _317  and  _318
REMARK  125  A    between atoms: _320  and  _322
REMARK  126  A    between atoms: _322  and  _323
REMARK  127  A    between atoms: _322  and  _325
REMARK  128  A    between atoms: _325  and  _326
REMARK  129  A    between atoms: _327  and  _329
REMARK  130  A    between atoms: _329  and  _330
REMARK  131  A    between atoms: _329  and  _332
REMARK  132  A    between atoms: _332  and  _333
REMARK  133  A    between atoms: _336  and  _338
REMARK  134  A    between atoms: _338  and  _339
REMARK  135  A    between atoms: _338  and  _341
REMARK  136  A    between atoms: _344  and  _346
REMARK  137  A    between atoms: _346  and  _347
REMARK  138  A    between atoms: _346  and  _349
REMARK  139  A    between atoms: _349  and  _350
REMARK  140  A    between atoms: _353  and  _355
REMARK  141  A    between atoms: _355  and  _356
REMARK  142  A    between atoms: _355  and  _358
REMARK  143  A    between atoms: _361  and  _363
REMARK  144  A    between atoms: _363  and  _364
REMARK  145  A    between atoms: _363  and  _366
REMARK  146  A    between atoms: _366  and  _367
REMARK  147  A    between atoms: _370  and  _372
REMARK  148  A    between atoms: _372  and  _373
REMARK  149  A    between atoms: _372  and  _375
REMARK  150  A    between atoms: _375  and  _376
REMARK  151  A    between atoms: _381  and  _382
REMARK  152  A    between atoms: _384  and  _386
REMARK  153  A    between atoms: _386  and  _387
REMARK  154  A    between atoms: _386  and  _389
REMARK  155  A    between atoms: _389  and  _390
REMARK  156  A    between atoms: _393  and  _395
REMARK  157  A    between atoms: _395  and  _396
REMARK  158  A    between atoms: _395  and  _398
REMARK  159  A    between atoms: _398  and  _399
REMARK                            x       y       z     vdW  Elec       q    Type
REMARK                         _______ _______ _______ _____ _____    ______ ____
ROOT
ATOM      1  CA  VAL A   1       4.655  75.033  -5.780  0.00  0.00    +0.133 C 
ENDROOT
BRANCH   1   2
ATOM      2  CB  VAL A   1       5.882  75.946  -5.522  0.00  0.00    +0.023 C 
ATOM      3  CG2 VAL A   1       6.900  75.237  -4.631  0.00  0.00    +0.002 C 
ATOM      4  CG1 VAL A   1       6.518  76.329  -6.842  0.00  0.00    +0.002 C 
ENDBRANCH   1   2
BRANCH   1   5
ATOM      5  N   VAL A   1       3.615  75.753  -6.491  0.00  0.00    -0.239 NA
ATOM      6  H   VAL A   1       3.777  76.744  -6.761  0.00  0.00    +0.142 HD
ENDBRANCH   1   5
BRANCH   1   7
ATOM      7  C   VAL A   1       4.118  74.513  -4.448  0.00  0.00    +0.224 C 
ATOM      8  O   VAL A   1       4.198  73.318  -4.164  0.00  0.00    -0.287 OA
ENDBRANCH   1   7
TORSDOF 3
REMARK  Name = ../refined-set-2016/2bfr/2bfr_pocket.pdb
REMARK  159 active torsions:
REMARK  status: ('A' for Active; 'I' for Inactive)
REMARK    1  A    between atoms: _1  and  _3
REMARK    2  A    between atoms: _3  and  _4
REMARK    3  A    between atoms: _7  and  _9
REMARK    4  A    between atoms: _9  and  _10
REMARK    5  A    between atoms: _9  and  _12
REMARK    6  A    between atoms: _12  and  _13
REMARK    7  A    between atoms: _13  and  _14
REMARK    8  A    between atoms: _19  and  _21
REMARK    9  A    between atoms: _21  and  _22
REMARK   10  A    between atoms: _24  and  _26
REMARK   11  A    between atoms: _26  and  _27
REMARK   12  A    between atoms: _26  and  _29
REMARK   13  A    between atoms: _29  and  _30
REMARK   14  A    between atoms: _33  and  _35
REMARK   15  A    between atoms: _35  and  _36
REMARK   16  A    between atoms: _35  and  _38
REMARK   17  A    between atoms: _38  and  _39
REMARK   18  A    between atoms: _42  and  _44
REMARK   19  A    between atoms: _44  and  _45
REMARK   20  A    between atoms: _44  and  _47
REMARK   21  A    between atoms: _47  and  _48
REMARK   22  A    between atoms: _51  and  _53
REMARK   23  A    between atoms: _53  and  _54
REMARK   24  A    between atoms: _53  and  _56
REMARK   25  A    between atoms: _56  and  _57
REMARK   26  A    between atoms: _57  and  _58
REMARK   27  A    between atoms: _63  and  _65
REMARK   28  A    between atoms: _65  and  _66
REMARK   29  A    between atoms: _65  and  _68
REMARK   30  A    between atoms: _68  and  _69
REMARK   31  A    between atoms: _74  and  _75
REMARK   32  A    between atoms: _77  and  _79
REMARK   33  A    between atoms: _79  and  _80
REMARK   34  A    between atoms: _79  and  _82
REMARK   35  A    between atoms: _85  and  _87
REMARK   36  A    between atoms: _87  and  _88
REMARK   37  A    between atoms: _87  and  _90
REMARK   38  A    between atoms: _90  and  _91
REMARK   39  A    between atoms: _96  and  _98
REMARK   40  A    between atoms: _98  and  _99
REMARK   41  A    between atoms: _102  and  _104
REMARK   42  A    between atoms: _104  and  _105
REMARK   43  A    between atoms: _108  and  _110
REMARK   44  A    between atoms: _110  and  _111
REMARK   45  A    between atoms: _110  and  _113
REMARK   46  A    between atoms: _113  and  _114
REMARK   47  A    between atoms: _119  and  _121
REMARK   48  A    between atoms: _121  and  _122
REMARK   49  A    between atoms: _124  and  _126
REMARK   50  A    between atoms: _126  and  _127
REMARK   51  A    between atoms: _129  and  _131
REMARK   52  A    between atoms: _131  and  _132
REMARK   53  A    between atoms: _131  and  _134
REMARK   54  A    between atoms: _137  and  _139
REMARK   55  A    between atoms: _139  and  _140
REMARK   56  A    between atoms: _143  and  _145
REMARK   57  A    between atoms: _145  and  _146
REMARK   58  A    between atoms: _145  and  _148
REMARK   59  A    between atoms: _148  and  _149
REMARK   60  A    between atoms: _154  and  _155
REMARK   61  A    between atoms: _157  and  _159
REMARK   62  A    between atoms: _159  and  _160
REMARK   63  A    between atoms: _163  and  _165
REMARK   64  A    between atoms: _165  and  _166
REMARK   65  A    between atoms: _165  and  _168
REMARK   66  A    between atoms: _168  and  _169
REMARK   67  A    between atoms: _172  and  _174
REMARK   68  A    between atoms: _174  and  _175
REMARK   69  A    between atoms: _178  and  _180
REMARK   70  A    between atoms: _180  and  _181
REMARK   71  A    between atoms: _180  and  _183
REMARK   72  A    between atoms: _183  and  _184
REMARK   73  A    between atoms: _187  and  _189
REMARK   74  A    between atoms: _189  and  _190
REMARK   75  A    between atoms: _189  and  _192
REMARK   76  A    between atoms: _195  and  _197
REMARK   77  A    between atoms: _197  and  _198
REMARK   78  A    between atoms: _201  and  _202
REMARK   79  A    between atoms: _207  and  _209
REMARK   80  A    between atoms: _209  and  _210
REMARK   81  A    between atoms: _209  and  _212
REMARK   82  A    between atoms: _212  and  _213
REMARK   83  A    between atoms: _216  and  _218
REMARK   84  A    between atoms: _218  and  _219
REMARK   85  A    between atoms: _218  and  _221
REMARK   86  A    between atoms: _221  and  _222
REMARK   87  A    between atoms: _222  and  _326
REMARK   88  A    between atoms: _223  and  _225
REMARK   89  A    between atoms: _225  and  _226
REMARK   90  A    between atoms: _225  and  _228
REMARK   91  A    between atoms: _228  and  _229
REMARK   92  A    between atoms: _231  and  _233
REMARK   93  A    between atoms: _233  and  _234
REMARK   94  A    between atoms: _233  and  _236
REMARK   95  A    between atoms: _236  and  _237
REMARK   96  A    between atoms: _240  and  _242
REMARK   97  A    between atoms: _242  and  _243
REMARK   98  A    between atoms: _242  and  _245
REMARK   99  A    between atoms: _245  and  _246
REMARK  100  A    between atoms: _253  and  _254
REMARK  101  A    between atoms: _259  and  _261
REMARK  102  A    between atoms: _261  and  _262
REMARK  103  A    between atoms: _265  and  _267
REMARK  104  A    between atoms: _267  and  _268
REMARK  105  A    between atoms: _267  and  _270
REMARK  106  A    between atoms: _273  and  _275
REMARK  107  A    between atoms: _275  and  _276
REMARK  108  A    between atoms: _275  and  _278
REMARK  109  A    between atoms: _278  and  _279
REMARK  110  A    between atoms: _281  and  _283
REMARK  111  A    between atoms: _283  and  _284
REMARK  112  A    between atoms: _287  and  _289
REMARK  113  A    between atoms: _289  and  _290
REMARK  114  A    between atoms: _292  and  _294
REMARK  115  A    between atoms: _294  and  _295
REMARK  116  A    between atoms: _294  and  _297
REMARK  117  A    between atoms: _297  and  _298
REMARK  118  A    between atoms: _301  and  _303
REMARK  119  A    between atoms: _303  and  _304
REMARK  120  A    between atoms: _303  and  _306
REMARK  121  A    between atoms: _306  and  _307
REMARK  122  A    between atoms: _312  and  _313
REMARK  123  A    between atoms: _315  and  _317
REMARK  124  A    between atoms: _317  and  _318
REMARK  125  A    between atoms: _320  and  _322
REMARK  126  A    between atoms: _322  and  _323
REMARK  127  A    between atoms: _322  and  _325
REMARK  128  A    between atoms: _325  and  _326
REMARK  129  A    between atoms: _327  and  _329
REMARK  130  A    between atoms: _329  and  _330
REMARK  131  A    between atoms: _329  and  _332
REMARK  132  A    between atoms: _332  and  _333
REMARK  133  A    between atoms: _336  and  _338
REMARK  134  A    between atoms: _338  and  _339
REMARK  135  A    between atoms: _338  and  _341
REMARK  136  A    between atoms: _344  and  _346
REMARK  137  A    between atoms: _346  and  _347
REMARK  138  A    between atoms: _346  and  _349
REMARK  139  A    between atoms: _349  and  _350
REMARK  140  A    between atoms: _353  and  _355
REMARK  141  A    between atoms: _355  and  _356
REMARK  142  A    between atoms: _355  and  _358
REMARK  143  A    between atoms: _361  and  _363
REMARK  144  A    between atoms: _363  and  _364
REMARK  145  A    between atoms: _363  and  _366
REMARK  146  A    between atoms: _366  and  _367
REMARK  147  A    between atoms: _370  and  _372
REMARK  148  A    between atoms: _372  and  _373
REMARK  149  A    between atoms: _372  and  _375
REMARK  150  A    between atoms: _375  and  _376
REMARK  151  A    between atoms: _381  and  _382
REMARK  152  A    between atoms: _384  and  _386
REMARK  153  A    between atoms: _386  and  _387
REMARK  154  A    between atoms: _386  and  _389
REMARK  155  A    between atoms: _389  and  _390
REMARK  156  A    between atoms: _393  and  _395
REMARK  157  A    between atoms: _395  and  _396
REMARK  158  A    between atoms: _395  and  _398
REMARK  159  A    between atoms: _398  and  _399
REMARK                            x       y       z     vdW  Elec       q    Type
REMARK                         _______ _______ _______ _____ _____    ______ ____
ROOT
ATOM      1  C   ILE A   3      10.814  81.597   3.510  0.00  0.00    +0.241 C 
ATOM      2  O   ILE A   3      10.692  82.052   4.651  0.00  0.00    -0.273 OA
ATOM      3  N   TYR A   4      11.674  82.078   2.617  0.00  0.00    -0.297 N 
ATOM      4  H   TYR A   4      11.683  81.667   1.662  0.00  0.00    +0.150 HD
ENDROOT
BRANCH   3   5
ATOM      5  CA  TYR A   4      12.603  83.156   2.922  0.00  0.00    +0.153 C 
BRANCH   5   6
ATOM      6  C   TYR A   4      11.995  84.544   3.109  0.00  0.00    +0.241 C 
ATOM      7  O   TYR A   4      12.051  85.098   4.204  0.00  0.00    -0.273 OA
ATOM      8  N   ASP A   5      11.422  85.108   2.050  0.00  0.00    -0.298 N 
ATOM      9  H   ASP A   5      11.387  84.589   1.149  0.00  0.00    +0.150 HD
BRANCH   8  10
ATOM     10  CA  ASP A   5      10.841  86.447   2.133  0.00  0.00    +0.148 C 
BRANCH  10  11
ATOM     11  C   ASP A   5       9.404  86.474   2.648  0.00  0.00    +0.227 C 
ATOM     12  O   ASP A   5       8.624  85.553   2.406  0.00  0.00    -0.286 OA
ENDBRANCH  10  11
BRANCH  10  13
ATOM     13  CB  ASP A   5      10.920  87.141   0.770  0.00  0.00    +0.142 C 
BRANCH  13  14
ATOM     14  CG  ASP A   5      10.036  86.492  -0.263  0.00  0.00    +0.367 C 
ATOM     15  OD2 ASP A   5       8.803  86.554  -0.096  0.00  0.00    -0.246 OA
ATOM     16  OD1 ASP A   5      10.572  85.920  -1.237  0.00  0.00    -0.246 OA
ENDBRANCH  13  14
ENDBRANCH  10  13
ENDBRANCH   8  10
ENDBRANCH   5   6
BRANCH   5  17
ATOM     17  CB  TYR A   4      13.672  83.206   1.834  0.00  0.00    +0.055 C 
BRANCH  17  18
ATOM     18  CG  TYR A   4      14.986  83.827   2.250  0.00  0.00    -0.020 A 
ATOM     19  CD2 TYR A   4      15.611  83.457   3.441  0.00  0.00    -0.001 A 
ATOM     20  CE2 TYR A   4      16.873  83.954   3.778  0.00  0.00    +0.036 A 
ATOM     21  CZ  TYR A   4      17.519  84.832   2.915  0.00  0.00    +0.134 A 
ATOM     22  CE1 TYR A   4      16.911  85.219   1.730  0.00  0.00    +0.036 A 
ATOM     23  CD1 TYR A   4      15.652  84.719   1.406  0.00  0.00    -0.001 A 
BRANCH  21  24
ATOM     24  OH  TYR A   4      18.779  85.303   3.219  0.00  0.00    -0.506 OA
ATOM     25  HH  TYR A   4      19.066  84.935   4.092  0.00  0.00    +0.292 HD
ENDBRANCH  21  24
ENDBRANCH  17  18
ENDBRANCH   5  17
ENDBRANCH   3   5
BRANCH   1  26
ATOM     26  CA  ILE A   3       9.956  80.431   3.037  0.00  0.00    +0.149 C 
BRANCH  26  28
ATOM     27  C   VAL A   2      10.612  78.236   3.892  0.00  0.00    +0.241 C 
ATOM     28  N   ILE A   3       9.959  79.385   4.054  0.00  0.00    -0.297 N 
ATOM     29  H   ILE A   3       9.432  79.542   4.937  0.00  0.00    +0.150 HD
ATOM     30  O   VAL A   2      11.258  77.958   2.879  0.00  0.00    -0.273 OA
BRANCH  27  31
ATOM     31  CA  VAL A   2      10.510  77.248   5.042  0.00  0.00    +0.148 C 
BRANCH  31  34
ATOM     32  C   LEU A   1       8.663  75.672   4.974  0.00  0.00    +0.238 C 
ATOM     33  O   LEU A   1       7.974  76.376   5.708  0.00  0.00    -0.274 OA
ATOM     34  N   VAL A   2       9.892  76.005   4.601  0.00  0.00    -0.297 N 
ATOM     35  H   VAL A   2      10.426  75.364   3.980  0.00  0.00    +0.150 HD
BRANCH  32  36
ATOM     36  CA  LEU A   1       8.132  74.341   4.476  0.00  0.00    +0.145 C 
BRANCH  36  37
ATOM     37  N   LEU A   1       7.895  73.603   5.709  0.00  0.00    -0.238 NA
ATOM     38  H   LEU A   1       7.182  73.962   6.376  0.00  0.00    +0.142 HD
ENDBRANCH  36  37
BRANCH  36  39
ATOM     39  CB  LEU A   1       6.831  74.561   3.705  0.00  0.00    +0.026 C 
BRANCH  39  40
ATOM     40  CG  LEU A   1       6.976  75.381   2.420  0.00  0.00    +0.002 C 
ATOM     41  CD2 LEU A   1       5.605  75.666   1.830  0.00  0.00    +0.000 C 
ATOM     42  CD1 LEU A   1       7.833  74.619   1.420  0.00  0.00    +0.000 C 
ENDBRANCH  39  40
ENDBRANCH  36  39
ENDBRANCH  32  36
ENDBRANCH  31  34
BRANCH  31  43
ATOM     43  CB  VAL A   2      11.921  76.982   5.620  0.00  0.00    +0.027 C 
ATOM     44  CG2 VAL A   2      11.837  75.931   6.718  0.00  0.00    +0.002 C 
ATOM     45  CG1 VAL A   2      12.518  78.266   6.168  0.00  0.00    +0.002 C 
ENDBRANCH  31  43
ENDBRANCH  27  31
ENDBRANCH  26  28
BRANCH  26  46
ATOM     46  CB  ILE A   3       8.527  80.927   2.757  0.00  0.00    +0.027 C 
ATOM     47  CG2 ILE A   3       8.533  81.913   1.601  0.00  0.00    +0.002 C 
BRANCH  46  48
ATOM     48  CG1 ILE A   3       7.619  79.733   2.443  0.00  0.00    +0.002 C 
ATOM     49  CD1 ILE A   3       8.077  78.888   1.272  0.00  0.00    +0.000 C 
ENDBRANCH  46  48
ENDBRANCH  26  46
ENDBRANCH   1  26
TORSDOF 20
REMARK  Name = ../refined-set-2016/2bfr/2bfr_pocket.pdb
REMARK  159 active torsions:
REMARK  status: ('A' for Active; 'I' for Inactive)
REMARK    1  A    between atoms: _1  and  _3
REMARK    2  A    between atoms: _3  and  _4
REMARK    3  A    between atoms: _7  and  _9
REMARK    4  A    between atoms: _9  and  _10
REMARK    5  A    between atoms: _9  and  _12
REMARK    6  A    between atoms: _12  and  _13
REMARK    7  A    between atoms: _13  and  _14
REMARK    8  A    between atoms: _19  and  _21
REMARK    9  A    between atoms: _21  and  _22
REMARK   10  A    between atoms: _24  and  _26
REMARK   11  A    between atoms: _26  and  _27
REMARK   12  A    between atoms: _26  and  _29
REMARK   13  A    between atoms: _29  and  _30
REMARK   14  A    between atoms: _33  and  _35
REMARK   15  A    between atoms: _35  and  _36
REMARK   16  A    between atoms: _35  and  _38
REMARK   17  A    between atoms: _38  and  _39
REMARK   18  A    between atoms: _42  and  _44
REMARK   19  A    between atoms: _44  and  _45
REMARK   20  A    between atoms: _44  and  _47
REMARK   21  A    between atoms: _47  and  _48
REMARK   22  A    between atoms: _51  and  _53
REMARK   23  A    between atoms: _53  and  _54
REMARK   24  A    between atoms: _53  and  _56
REMARK   25  A    between atoms: _56  and  _57
REMARK   26  A    between atoms: _57  and  _58
REMARK   27  A    between atoms: _63  and  _65
REMARK   28  A    between atoms: _65  and  _66
REMARK   29  A    between atoms: _65  and  _68
REMARK   30  A    between atoms: _68  and  _69
REMARK   31  A    between atoms: _74  and  _75
REMARK   32  A    between atoms: _77  and  _79
REMARK   33  A    between atoms: _79  and  _80
REMARK   34  A    between atoms: _79  and  _82
REMARK   35  A    between atoms: _85  and  _87
REMARK   36  A    between atoms: _87  and  _88
REMARK   37  A    between atoms: _87  and  _90
REMARK   38  A    between atoms: _90  and  _91
REMARK   39  A    between atoms: _96  and  _98
REMARK   40  A    between atoms: _98  and  _99
REMARK   41  A    between atoms: _102  and  _104
REMARK   42  A    between atoms: _104  and  _105
REMARK   43  A    between atoms: _108  and  _110
REMARK   44  A    between atoms: _110  and  _111
REMARK   45  A    between atoms: _110  and  _113
REMARK   46  A    between atoms: _113  and  _114
REMARK   47  A    between atoms: _119  and  _121
REMARK   48  A    between atoms: _121  and  _122
REMARK   49  A    between atoms: _124  and  _126
REMARK   50  A    between atoms: _126  and  _127
REMARK   51  A    between atoms: _129  and  _131
REMARK   52  A    between atoms: _131  and  _132
REMARK   53  A    between atoms: _131  and  _134
REMARK   54  A    between atoms: _137  and  _139
REMARK   55  A    between atoms: _139  and  _140
REMARK   56  A    between atoms: _143  and  _145
REMARK   57  A    between atoms: _145  and  _146
REMARK   58  A    between atoms: _145  and  _148
REMARK   59  A    between atoms: _148  and  _149
REMARK   60  A    between atoms: _154  and  _155
REMARK   61  A    between atoms: _157  and  _159
REMARK   62  A    between atoms: _159  and  _160
REMARK   63  A    between atoms: _163  and  _165
REMARK   64  A    between atoms: _165  and  _166
REMARK   65  A    between atoms: _165  and  _168
REMARK   66  A    between atoms: _168  and  _169
REMARK   67  A    between atoms: _172  and  _174
REMARK   68  A    between atoms: _174  and  _175
REMARK   69  A    between atoms: _178  and  _180
REMARK   70  A    between atoms: _180  and  _181
REMARK   71  A    between atoms: _180  and  _183
REMARK   72  A    between atoms: _183  and  _184
REMARK   73  A    between atoms: _187  and  _189
REMARK   74  A    between atoms: _189  and  _190
REMARK   75  A    between atoms: _189  and  _192
REMARK   76  A    between atoms: _195  and  _197
REMARK   77  A    between atoms: _197  and  _198
REMARK   78  A    between atoms: _201  and  _202
REMARK   79  A    between atoms: _207  and  _209
REMARK   80  A    between atoms: _209  and  _210
REMARK   81  A    between atoms: _209  and  _212
REMARK   82  A    between atoms: _212  and  _213
REMARK   83  A    between atoms: _216  and  _218
REMARK   84  A    between atoms: _218  and  _219
REMARK   85  A    between atoms: _218  and  _221
REMARK   86  A    between atoms: _221  and  _222
REMARK   87  A    between atoms: _222  and  _326
REMARK   88  A    between atoms: _223  and  _225
REMARK   89  A    between atoms: _225  and  _226
REMARK   90  A    between atoms: _225  and  _228
REMARK   91  A    between atoms: _228  and  _229
REMARK   92  A    between atoms: _231  and  _233
REMARK   93  A    between atoms: _233  and  _234
REMARK   94  A    between atoms: _233  and  _236
REMARK   95  A    between atoms: _236  and  _237
REMARK   96  A    between atoms: _240  and  _242
REMARK   97  A    between atoms: _242  and  _243
REMARK   98  A    between atoms: _242  and  _245
REMARK   99  A    between atoms: _245  and  _246
REMARK  100  A    between atoms: _253  and  _254
REMARK  101  A    between atoms: _259  and  _261
REMARK  102  A    between atoms: _261  and  _262
REMARK  103  A    between atoms: _265  and  _267
REMARK  104  A    between atoms: _267  and  _268
REMARK  105  A    between atoms: _267  and  _270
REMARK  106  A    between atoms: _273  and  _275
REMARK  107  A    between atoms: _275  and  _276
REMARK  108  A    between atoms: _275  and  _278
REMARK  109  A    between atoms: _278  and  _279
REMARK  110  A    between atoms: _281  and  _283
REMARK  111  A    between atoms: _283  and  _284
REMARK  112  A    between atoms: _287  and  _289
REMARK  113  A    between atoms: _289  and  _290
REMARK  114  A    between atoms: _292  and  _294
REMARK  115  A    between atoms: _294  and  _295
REMARK  116  A    between atoms: _294  and  _297
REMARK  117  A    between atoms: _297  and  _298
REMARK  118  A    between atoms: _301  and  _303
REMARK  119  A    between atoms: _303  and  _304
REMARK  120  A    between atoms: _303  and  _306
REMARK  121  A    between atoms: _306  and  _307
REMARK  122  A    between atoms: _312  and  _313
REMARK  123  A    between atoms: _315  and  _317
REMARK  124  A    between atoms: _317  and  _318
REMARK  125  A    between atoms: _320  and  _322
REMARK  126  A    between atoms: _322  and  _323
REMARK  127  A    between atoms: _322  and  _325
REMARK  128  A    between atoms: _325  and  _326
REMARK  129  A    between atoms: _327  and  _329
REMARK  130  A    between atoms: _329  and  _330
REMARK  131  A    between atoms: _329  and  _332
REMARK  132  A    between atoms: _332  and  _333
REMARK  133  A    between atoms: _336  and  _338
REMARK  134  A    between atoms: _338  and  _339
REMARK  135  A    between atoms: _338  and  _341
REMARK  136  A    between atoms: _344  and  _346
REMARK  137  A    between atoms: _346  and  _347
REMARK  138  A    between atoms: _346  and  _349
REMARK  139  A    between atoms: _349  and  _350
REMARK  140  A    between atoms: _353  and  _355
REMARK  141  A    between atoms: _355  and  _356
REMARK  142  A    between atoms: _355  and  _358
REMARK  143  A    between atoms: _361  and  _363
REMARK  144  A    between atoms: _363  and  _364
REMARK  145  A    between atoms: _363  and  _366
REMARK  146  A    between atoms: _366  and  _367
REMARK  147  A    between atoms: _370  and  _372
REMARK  148  A    between atoms: _372  and  _373
REMARK  149  A    between atoms: _372  and  _375
REMARK  150  A    between atoms: _375  and  _376
REMARK  151  A    between atoms: _381  and  _382
REMARK  152  A    between atoms: _384  and  _386
REMARK  153  A    between atoms: _386  and  _387
REMARK  154  A    between atoms: _386  and  _389
REMARK  155  A    between atoms: _389  and  _390
REMARK  156  A    between atoms: _393  and  _395
REMARK  157  A    between atoms: _395  and  _396
REMARK  158  A    between atoms: _395  and  _398
REMARK  159  A    between atoms: _398  and  _399
REMARK                            x       y       z     vdW  Elec       q    Type
REMARK                         _______ _______ _______ _____ _____    ______ ____
ROOT
ATOM      1  CA  SER A   1       6.108  84.861  -0.394  0.00  0.00    +0.163 C 
ENDROOT
BRANCH   1   2
ATOM      2  N   SER A   1       6.378  86.225   0.042  0.00  0.00    -0.237 NA
ATOM      3  H   SER A   1       7.365  86.536   0.145  0.00  0.00    +0.142 HD
ENDBRANCH   1   2
BRANCH   1   4
ATOM      4  CB  SER A   1       5.499  84.037   0.728  0.00  0.00    +0.227 C 
ATOM      5  OG  SER A   1       4.646  83.183   0.492  0.00  0.00    -0.287 OA
ENDBRANCH   1   4
BRANCH   1   6
ATOM      6  C   SER A   1       7.398  84.194  -0.871  0.00  0.00    +0.162 C 
BRANCH   6   7
ATOM      7  O   SER A   1       7.975  84.912  -1.947  0.00  0.00    -0.380 OA
ATOM      8  H   SER A   1       8.184  85.834  -1.653  0.00  0.00    +0.211 HD
ENDBRANCH   6   7
ENDBRANCH   1   6
TORSDOF 4
REMARK  Name = ../refined-set-2016/2bfr/2bfr_pocket.pdb
REMARK  159 active torsions:
REMARK  status: ('A' for Active; 'I' for Inactive)
REMARK    1  A    between atoms: _1  and  _3
REMARK    2  A    between atoms: _3  and  _4
REMARK    3  A    between atoms: _7  and  _9
REMARK    4  A    between atoms: _9  and  _10
REMARK    5  A    between atoms: _9  and  _12
REMARK    6  A    between atoms: _12  and  _13
REMARK    7  A    between atoms: _13  and  _14
REMARK    8  A    between atoms: _19  and  _21
REMARK    9  A    between atoms: _21  and  _22
REMARK   10  A    between atoms: _24  and  _26
REMARK   11  A    between atoms: _26  and  _27
REMARK   12  A    between atoms: _26  and  _29
REMARK   13  A    between atoms: _29  and  _30
REMARK   14  A    between atoms: _33  and  _35
REMARK   15  A    between atoms: _35  and  _36
REMARK   16  A    between atoms: _35  and  _38
REMARK   17  A    between atoms: _38  and  _39
REMARK   18  A    between atoms: _42  and  _44
REMARK   19  A    between atoms: _44  and  _45
REMARK   20  A    between atoms: _44  and  _47
REMARK   21  A    between atoms: _47  and  _48
REMARK   22  A    between atoms: _51  and  _53
REMARK   23  A    between atoms: _53  and  _54
REMARK   24  A    between atoms: _53  and  _56
REMARK   25  A    between atoms: _56  and  _57
REMARK   26  A    between atoms: _57  and  _58
REMARK   27  A    between atoms: _63  and  _65
REMARK   28  A    between atoms: _65  and  _66
REMARK   29  A    between atoms: _65  and  _68
REMARK   30  A    between atoms: _68  and  _69
REMARK   31  A    between atoms: _74  and  _75
REMARK   32  A    between atoms: _77  and  _79
REMARK   33  A    between atoms: _79  and  _80
REMARK   34  A    between atoms: _79  and  _82
REMARK   35  A    between atoms: _85  and  _87
REMARK   36  A    between atoms: _87  and  _88
REMARK   37  A    between atoms: _87  and  _90
REMARK   38  A    between atoms: _90  and  _91
REMARK   39  A    between atoms: _96  and  _98
REMARK   40  A    between atoms: _98  and  _99
REMARK   41  A    between atoms: _102  and  _104
REMARK   42  A    between atoms: _104  and  _105
REMARK   43  A    between atoms: _108  and  _110
REMARK   44  A    between atoms: _110  and  _111
REMARK   45  A    between atoms: _110  and  _113
REMARK   46  A    between atoms: _113  and  _114
REMARK   47  A    between atoms: _119  and  _121
REMARK   48  A    between atoms: _121  and  _122
REMARK   49  A    between atoms: _124  and  _126
REMARK   50  A    between atoms: _126  and  _127
REMARK   51  A    between atoms: _129  and  _131
REMARK   52  A    between atoms: _131  and  _132
REMARK   53  A    between atoms: _131  and  _134
REMARK   54  A    between atoms: _137  and  _139
REMARK   55  A    between atoms: _139  and  _140
REMARK   56  A    between atoms: _143  and  _145
REMARK   57  A    between atoms: _145  and  _146
REMARK   58  A    between atoms: _145  and  _148
REMARK   59  A    between atoms: _148  and  _149
REMARK   60  A    between atoms: _154  and  _155
REMARK   61  A    between atoms: _157  and  _159
REMARK   62  A    between atoms: _159  and  _160
REMARK   63  A    between atoms: _163  and  _165
REMARK   64  A    between atoms: _165  and  _166
REMARK   65  A    between atoms: _165  and  _168
REMARK   66  A    between atoms: _168  and  _169
REMARK   67  A    between atoms: _172  and  _174
REMARK   68  A    between atoms: _174  and  _175
REMARK   69  A    between atoms: _178  and  _180
REMARK   70  A    between atoms: _180  and  _181
REMARK   71  A    between atoms: _180  and  _183
REMARK   72  A    between atoms: _183  and  _184
REMARK   73  A    between atoms: _187  and  _189
REMARK   74  A    between atoms: _189  and  _190
REMARK   75  A    between atoms: _189  and  _192
REMARK   76  A    between atoms: _195  and  _197
REMARK   77  A    between atoms: _197  and  _198
REMARK   78  A    between atoms: _201  and  _202
REMARK   79  A    between atoms: _207  and  _209
REMARK   80  A    between atoms: _209  and  _210
REMARK   81  A    between atoms: _209  and  _212
REMARK   82  A    between atoms: _212  and  _213
REMARK   83  A    between atoms: _216  and  _218
REMARK   84  A    between atoms: _218  and  _219
REMARK   85  A    between atoms: _218  and  _221
REMARK   86  A    between atoms: _221  and  _222
REMARK   87  A    between atoms: _222  and  _326
REMARK   88  A    between atoms: _223  and  _225
REMARK   89  A    between atoms: _225  and  _226
REMARK   90  A    between atoms: _225  and  _228
REMARK   91  A    between atoms: _228  and  _229
REMARK   92  A    between atoms: _231  and  _233
REMARK   93  A    between atoms: _233  and  _234
REMARK   94  A    between atoms: _233  and  _236
REMARK   95  A    between atoms: _236  and  _237
REMARK   96  A    between atoms: _240  and  _242
REMARK   97  A    between atoms: _242  and  _243
REMARK   98  A    between atoms: _242  and  _245
REMARK   99  A    between atoms: _245  and  _246
REMARK  100  A    between atoms: _253  and  _254
REMARK  101  A    between atoms: _259  and  _261
REMARK  102  A    between atoms: _261  and  _262
REMARK  103  A    between atoms: _265  and  _267
REMARK  104  A    between atoms: _267  and  _268
REMARK  105  A    between atoms: _267  and  _270
REMARK  106  A    between atoms: _273  and  _275
REMARK  107  A    between atoms: _275  and  _276
REMARK  108  A    between atoms: _275  and  _278
REMARK  109  A    between atoms: _278  and  _279
REMARK  110  A    between atoms: _281  and  _283
REMARK  111  A    between atoms: _283  and  _284
REMARK  112  A    between atoms: _287  and  _289
REMARK  113  A    between atoms: _289  and  _290
REMARK  114  A    between atoms: _292  and  _294
REMARK  115  A    between atoms: _294  and  _295
REMARK  116  A    between atoms: _294  and  _297
REMARK  117  A    between atoms: _297  and  _298
REMARK  118  A    between atoms: _301  and  _303
REMARK  119  A    between atoms: _303  and  _304
REMARK  120  A    between atoms: _303  and  _306
REMARK  121  A    between atoms: _306  and  _307
REMARK  122  A    between atoms: _312  and  _313
REMARK  123  A    between atoms: _315  and  _317
REMARK  124  A    between atoms: _317  and  _318
REMARK  125  A    between atoms: _320  and  _322
REMARK  126  A    between atoms: _322  and  _323
REMARK  127  A    between atoms: _322  and  _325
REMARK  128  A    between atoms: _325  and  _326
REMARK  129  A    between atoms: _327  and  _329
REMARK  130  A    between atoms: _329  and  _330
REMARK  131  A    between atoms: _329  and  _332
REMARK  132  A    between atoms: _332  and  _333
REMARK  133  A    between atoms: _336  and  _338
REMARK  134  A    between atoms: _338  and  _339
REMARK  135  A    between atoms: _338  and  _341
REMARK  136  A    between atoms: _344  and  _346
REMARK  137  A    between atoms: _346  and  _347
REMARK  138  A    between atoms: _346  and  _349
REMARK  139  A    between atoms: _349  and  _350
REMARK  140  A    between atoms: _353  and  _355
REMARK  141  A    between atoms: _355  and  _356
REMARK  142  A    between atoms: _355  and  _358
REMARK  143  A    between atoms: _361  and  _363
REMARK  144  A    between atoms: _363  and  _364
REMARK  145  A    between atoms: _363  and  _366
REMARK  146  A    between atoms: _366  and  _367
REMARK  147  A    between atoms: _370  and  _372
REMARK  148  A    between atoms: _372  and  _373
REMARK  149  A    between atoms: _372  and  _375
REMARK  150  A    between atoms: _375  and  _376
REMARK  151  A    between atoms: _381  and  _382
REMARK  152  A    between atoms: _384  and  _386
REMARK  153  A    between atoms: _386  and  _387
REMARK  154  A    between atoms: _386  and  _389
REMARK  155  A    between atoms: _389  and  _390
REMARK  156  A    between atoms: _393  and  _395
REMARK  157  A    between atoms: _395  and  _396
REMARK  158  A    between atoms: _395  and  _398
REMARK  159  A    between atoms: _398  and  _399
REMARK                            x       y       z     vdW  Elec       q    Type
REMARK                         _______ _______ _______ _____ _____    ______ ____
ROOT
ATOM      1  O   HOH     1      21.885  81.851   4.919  0.00  0.00    +0.000 OA
ENDROOT
TORSDOF 0
REMARK  Name = ../refined-set-2016/2bfr/2bfr_pocket.pdb
REMARK  159 active torsions:
REMARK  status: ('A' for Active; 'I' for Inactive)
REMARK    1  A    between atoms: _1  and  _3
REMARK    2  A    between atoms: _3  and  _4
REMARK    3  A    between atoms: _7  and  _9
REMARK    4  A    between atoms: _9  and  _10
REMARK    5  A    between atoms: _9  and  _12
REMARK    6  A    between atoms: _12  and  _13
REMARK    7  A    between atoms: _13  and  _14
REMARK    8  A    between atoms: _19  and  _21
REMARK    9  A    between atoms: _21  and  _22
REMARK   10  A    between atoms: _24  and  _26
REMARK   11  A    between atoms: _26  and  _27
REMARK   12  A    between atoms: _26  and  _29
REMARK   13  A    between atoms: _29  and  _30
REMARK   14  A    between atoms: _33  and  _35
REMARK   15  A    between atoms: _35  and  _36
REMARK   16  A    between atoms: _35  and  _38
REMARK   17  A    between atoms: _38  and  _39
REMARK   18  A    between atoms: _42  and  _44
REMARK   19  A    between atoms: _44  and  _45
REMARK   20  A    between atoms: _44  and  _47
REMARK   21  A    between atoms: _47  and  _48
REMARK   22  A    between atoms: _51  and  _53
REMARK   23  A    between atoms: _53  and  _54
REMARK   24  A    between atoms: _53  and  _56
REMARK   25  A    between atoms: _56  and  _57
REMARK   26  A    between atoms: _57  and  _58
REMARK   27  A    between atoms: _63  and  _65
REMARK   28  A    between atoms: _65  and  _66
REMARK   29  A    between atoms: _65  and  _68
REMARK   30  A    between atoms: _68  and  _69
REMARK   31  A    between atoms: _74  and  _75
REMARK   32  A    between atoms: _77  and  _79
REMARK   33  A    between atoms: _79  and  _80
REMARK   34  A    between atoms: _79  and  _82
REMARK   35  A    between atoms: _85  and  _87
REMARK   36  A    between atoms: _87  and  _88
REMARK   37  A    between atoms: _87  and  _90
REMARK   38  A    between atoms: _90  and  _91
REMARK   39  A    between atoms: _96  and  _98
REMARK   40  A    between atoms: _98  and  _99
REMARK   41  A    between atoms: _102  and  _104
REMARK   42  A    between atoms: _104  and  _105
REMARK   43  A    between atoms: _108  and  _110
REMARK   44  A    between atoms: _110  and  _111
REMARK   45  A    between atoms: _110  and  _113
REMARK   46  A    between atoms: _113  and  _114
REMARK   47  A    between atoms: _119  and  _121
REMARK   48  A    between atoms: _121  and  _122
REMARK   49  A    between atoms: _124  and  _126
REMARK   50  A    between atoms: _126  and  _127
REMARK   51  A    between atoms: _129  and  _131
REMARK   52  A    between atoms: _131  and  _132
REMARK   53  A    between atoms: _131  and  _134
REMARK   54  A    between atoms: _137  and  _139
REMARK   55  A    between atoms: _139  and  _140
REMARK   56  A    between atoms: _143  and  _145
REMARK   57  A    between atoms: _145  and  _146
REMARK   58  A    between atoms: _145  and  _148
REMARK   59  A    between atoms: _148  and  _149
REMARK   60  A    between atoms: _154  and  _155
REMARK   61  A    between atoms: _157  and  _159
REMARK   62  A    between atoms: _159  and  _160
REMARK   63  A    between atoms: _163  and  _165
REMARK   64  A    between atoms: _165  and  _166
REMARK   65  A    between atoms: _165  and  _168
REMARK   66  A    between atoms: _168  and  _169
REMARK   67  A    between atoms: _172  and  _174
REMARK   68  A    between atoms: _174  and  _175
REMARK   69  A    between atoms: _178  and  _180
REMARK   70  A    between atoms: _180  and  _181
REMARK   71  A    between atoms: _180  and  _183
REMARK   72  A    between atoms: _183  and  _184
REMARK   73  A    between atoms: _187  and  _189
REMARK   74  A    between atoms: _189  and  _190
REMARK   75  A    between atoms: _189  and  _192
REMARK   76  A    between atoms: _195  and  _197
REMARK   77  A    between atoms: _197  and  _198
REMARK   78  A    between atoms: _201  and  _202
REMARK   79  A    between atoms: _207  and  _209
REMARK   80  A    between atoms: _209  and  _210
REMARK   81  A    between atoms: _209  and  _212
REMARK   82  A    between atoms: _212  and  _213
REMARK   83  A    between atoms: _216  and  _218
REMARK   84  A    between atoms: _218  and  _219
REMARK   85  A    between atoms: _218  and  _221
REMARK   86  A    between atoms: _221  and  _222
REMARK   87  A    between atoms: _222  and  _326
REMARK   88  A    between atoms: _223  and  _225
REMARK   89  A    between atoms: _225  and  _226
REMARK   90  A    between atoms: _225  and  _228
REMARK   91  A    between atoms: _228  and  _229
REMARK   92  A    between atoms: _231  and  _233
REMARK   93  A    between atoms: _233  and  _234
REMARK   94  A    between atoms: _233  and  _236
REMARK   95  A    between atoms: _236  and  _237
REMARK   96  A    between atoms: _240  and  _242
REMARK   97  A    between atoms: _242  and  _243
REMARK   98  A    between atoms: _242  and  _245
REMARK   99  A    between atoms: _245  and  _246
REMARK  100  A    between atoms: _253  and  _254
REMARK  101  A    between atoms: _259  and  _261
REMARK  102  A    between atoms: _261  and  _262
REMARK  103  A    between atoms: _265  and  _267
REMARK  104  A    between atoms: _267  and  _268
REMARK  105  A    between atoms: _267  and  _270
REMARK  106  A    between atoms: _273  and  _275
REMARK  107  A    between atoms: _275  and  _276
REMARK  108  A    between atoms: _275  and  _278
REMARK  109  A    between atoms: _278  and  _279
REMARK  110  A    between atoms: _281  and  _283
REMARK  111  A    between atoms: _283  and  _284
REMARK  112  A    between atoms: _287  and  _289
REMARK  113  A    between atoms: _289  and  _290
REMARK  114  A    between atoms: _292  and  _294
REMARK  115  A    between atoms: _294  and  _295
REMARK  116  A    between atoms: _294  and  _297
REMARK  117  A    between atoms: _297  and  _298
REMARK  118  A    between atoms: _301  and  _303
REMARK  119  A    between atoms: _303  and  _304
REMARK  120  A    between atoms: _303  and  _306
REMARK  121  A    between atoms: _306  and  _307
REMARK  122  A    between atoms: _312  and  _313
REMARK  123  A    between atoms: _315  and  _317
REMARK  124  A    between atoms: _317  and  _318
REMARK  125  A    between atoms: _320  and  _322
REMARK  126  A    between atoms: _322  and  _323
REMARK  127  A    between atoms: _322  and  _325
REMARK  128  A    between atoms: _325  and  _326
REMARK  129  A    between atoms: _327  and  _329
REMARK  130  A    between atoms: _329  and  _330
REMARK  131  A    between atoms: _329  and  _332
REMARK  132  A    between atoms: _332  and  _333
REMARK  133  A    between atoms: _336  and  _338
REMARK  134  A    between atoms: _338  and  _339
REMARK  135  A    between atoms: _338  and  _341
REMARK  136  A    between atoms: _344  and  _346
REMARK  137  A    between atoms: _346  and  _347
REMARK  138  A    between atoms: _346  and  _349
REMARK  139  A    between atoms: _349  and  _350
REMARK  140  A    between atoms: _353  and  _355
REMARK  141  A    between atoms: _355  and  _356
REMARK  142  A    between atoms: _355  and  _358
REMARK  143  A    between atoms: _361  and  _363
REMARK  144  A    between atoms: _363  and  _364
REMARK  145  A    between atoms: _363  and  _366
REMARK  146  A    between atoms: _366  and  _367
REMARK  147  A    between atoms: _370  and  _372
REMARK  148  A    between atoms: _372  and  _373
REMARK  149  A    between atoms: _372  and  _375
REMARK  150  A    between atoms: _375  and  _376
REMARK  151  A    between atoms: _381  and  _382
REMARK  152  A    between atoms: _384  and  _386
REMARK  153  A    between atoms: _386  and  _387
REMARK  154  A    between atoms: _386  and  _389
REMARK  155  A    between atoms: _389  and  _390
REMARK  156  A    between atoms: _393  and  _395
REMARK  157  A    between atoms: _395  and  _396
REMARK  158  A    between atoms: _395  and  _398
REMARK  159  A    between atoms: _398  and  _399
REMARK                            x       y       z     vdW  Elec       q    Type
REMARK                         _______ _______ _______ _____ _____    ______ ____
ROOT
ATOM      1  O   HOH     1      22.537  73.083  -7.090  0.00  0.00    +0.000 OA
ENDROOT
TORSDOF 0
REMARK  Name = ../refined-set-2016/2bfr/2bfr_pocket.pdb
REMARK  159 active torsions:
REMARK  status: ('A' for Active; 'I' for Inactive)
REMARK    1  A    between atoms: _1  and  _3
REMARK    2  A    between atoms: _3  and  _4
REMARK    3  A    between atoms: _7  and  _9
REMARK    4  A    between atoms: _9  and  _10
REMARK    5  A    between atoms: _9  and  _12
REMARK    6  A    between atoms: _12  and  _13
REMARK    7  A    between atoms: _13  and  _14
REMARK    8  A    between atoms: _19  and  _21
REMARK    9  A    between atoms: _21  and  _22
REMARK   10  A    between atoms: _24  and  _26
REMARK   11  A    between atoms: _26  and  _27
REMARK   12  A    between atoms: _26  and  _29
REMARK   13  A    between atoms: _29  and  _30
REMARK   14  A    between atoms: _33  and  _35
REMARK   15  A    between atoms: _35  and  _36
REMARK   16  A    between atoms: _35  and  _38
REMARK   17  A    between atoms: _38  and  _39
REMARK   18  A    between atoms: _42  and  _44
REMARK   19  A    between atoms: _44  and  _45
REMARK   20  A    between atoms: _44  and  _47
REMARK   21  A    between atoms: _47  and  _48
REMARK   22  A    between atoms: _51  and  _53
REMARK   23  A    between atoms: _53  and  _54
REMARK   24  A    between atoms: _53  and  _56
REMARK   25  A    between atoms: _56  and  _57
REMARK   26  A    between atoms: _57  and  _58
REMARK   27  A    between atoms: _63  and  _65
REMARK   28  A    between atoms: _65  and  _66
REMARK   29  A    between atoms: _65  and  _68
REMARK   30  A    between atoms: _68  and  _69
REMARK   31  A    between atoms: _74  and  _75
REMARK   32  A    between atoms: _77  and  _79
REMARK   33  A    between atoms: _79  and  _80
REMARK   34  A    between atoms: _79  and  _82
REMARK   35  A    between atoms: _85  and  _87
REMARK   36  A    between atoms: _87  and  _88
REMARK   37  A    between atoms: _87  and  _90
REMARK   38  A    between atoms: _90  and  _91
REMARK   39  A    between atoms: _96  and  _98
REMARK   40  A    between atoms: _98  and  _99
REMARK   41  A    between atoms: _102  and  _104
REMARK   42  A    between atoms: _104  and  _105
REMARK   43  A    between atoms: _108  and  _110
REMARK   44  A    between atoms: _110  and  _111
REMARK   45  A    between atoms: _110  and  _113
REMARK   46  A    between atoms: _113  and  _114
REMARK   47  A    between atoms: _119  and  _121
REMARK   48  A    between atoms: _121  and  _122
REMARK   49  A    between atoms: _124  and  _126
REMARK   50  A    between atoms: _126  and  _127
REMARK   51  A    between atoms: _129  and  _131
REMARK   52  A    between atoms: _131  and  _132
REMARK   53  A    between atoms: _131  and  _134
REMARK   54  A    between atoms: _137  and  _139
REMARK   55  A    between atoms: _139  and  _140
REMARK   56  A    between atoms: _143  and  _145
REMARK   57  A    between atoms: _145  and  _146
REMARK   58  A    between atoms: _145  and  _148
REMARK   59  A    between atoms: _148  and  _149
REMARK   60  A    between atoms: _154  and  _155
REMARK   61  A    between atoms: _157  and  _159
REMARK   62  A    between atoms: _159  and  _160
REMARK   63  A    between atoms: _163  and  _165
REMARK   64  A    between atoms: _165  and  _166
REMARK   65  A    between atoms: _165  and  _168
REMARK   66  A    between atoms: _168  and  _169
REMARK   67  A    between atoms: _172  and  _174
REMARK   68  A    between atoms: _174  and  _175
REMARK   69  A    between atoms: _178  and  _180
REMARK   70  A    between atoms: _180  and  _181
REMARK   71  A    between atoms: _180  and  _183
REMARK   72  A    between atoms: _183  and  _184
REMARK   73  A    between atoms: _187  and  _189
REMARK   74  A    between atoms: _189  and  _190
REMARK   75  A    between atoms: _189  and  _192
REMARK   76  A    between atoms: _195  and  _197
REMARK   77  A    between atoms: _197  and  _198
REMARK   78  A    between atoms: _201  and  _202
REMARK   79  A    between atoms: _207  and  _209
REMARK   80  A    between atoms: _209  and  _210
REMARK   81  A    between atoms: _209  and  _212
REMARK   82  A    between atoms: _212  and  _213
REMARK   83  A    between atoms: _216  and  _218
REMARK   84  A    between atoms: _218  and  _219
REMARK   85  A    between atoms: _218  and  _221
REMARK   86  A    between atoms: _221  and  _222
REMARK   87  A    between atoms: _222  and  _326
REMARK   88  A    between atoms: _223  and  _225
REMARK   89  A    between atoms: _225  and  _226
REMARK   90  A    between atoms: _225  and  _228
REMARK   91  A    between atoms: _228  and  _229
REMARK   92  A    between atoms: _231  and  _233
REMARK   93  A    between atoms: _233  and  _234
REMARK   94  A    between atoms: _233  and  _236
REMARK   95  A    between atoms: _236  and  _237
REMARK   96  A    between atoms: _240  and  _242
REMARK   97  A    between atoms: _242  and  _243
REMARK   98  A    between atoms: _242  and  _245
REMARK   99  A    between atoms: _245  and  _246
REMARK  100  A    between atoms: _253  and  _254
REMARK  101  A    between atoms: _259  and  _261
REMARK  102  A    between atoms: _261  and  _262
REMARK  103  A    between atoms: _265  and  _267
REMARK  104  A    between atoms: _267  and  _268
REMARK  105  A    between atoms: _267  and  _270
REMARK  106  A    between atoms: _273  and  _275
REMARK  107  A    between atoms: _275  and  _276
REMARK  108  A    between atoms: _275  and  _278
REMARK  109  A    between atoms: _278  and  _279
REMARK  110  A    between atoms: _281  and  _283
REMARK  111  A    between atoms: _283  and  _284
REMARK  112  A    between atoms: _287  and  _289
REMARK  113  A    between atoms: _289  and  _290
REMARK  114  A    between atoms: _292  and  _294
REMARK  115  A    between atoms: _294  and  _295
REMARK  116  A    between atoms: _294  and  _297
REMARK  117  A    between atoms: _297  and  _298
REMARK  118  A    between atoms: _301  and  _303
REMARK  119  A    between atoms: _303  and  _304
REMARK  120  A    between atoms: _303  and  _306
REMARK  121  A    between atoms: _306  and  _307
REMARK  122  A    between atoms: _312  and  _313
REMARK  123  A    between atoms: _315  and  _317
REMARK  124  A    between atoms: _317  and  _318
REMARK  125  A    between atoms: _320  and  _322
REMARK  126  A    between atoms: _322  and  _323
REMARK  127  A    between atoms: _322  and  _325
REMARK  128  A    between atoms: _325  and  _326
REMARK  129  A    between atoms: _327  and  _329
REMARK  130  A    between atoms: _329  and  _330
REMARK  131  A    between atoms: _329  and  _332
REMARK  132  A    between atoms: _332  and  _333
REMARK  133  A    between atoms: _336  and  _338
REMARK  134  A    between atoms: _338  and  _339
REMARK  135  A    between atoms: _338  and  _341
REMARK  136  A    between atoms: _344  and  _346
REMARK  137  A    between atoms: _346  and  _347
REMARK  138  A    between atoms: _346  and  _349
REMARK  139  A    between atoms: _349  and  _350
REMARK  140  A    between atoms: _353  and  _355
REMARK  141  A    between atoms: _355  and  _356
REMARK  142  A    between atoms: _355  and  _358
REMARK  143  A    between atoms: _361  and  _363
REMARK  144  A    between atoms: _363  and  _364
REMARK  145  A    between atoms: _363  and  _366
REMARK  146  A    between atoms: _366  and  _367
REMARK  147  A    between atoms: _370  and  _372
REMARK  148  A    between atoms: _372  and  _373
REMARK  149  A    between atoms: _372  and  _375
REMARK  150  A    between atoms: _375  and  _376
REMARK  151  A    between atoms: _381  and  _382
REMARK  152  A    between atoms: _384  and  _386
REMARK  153  A    between atoms: _386  and  _387
REMARK  154  A    between atoms: _386  and  _389
REMARK  155  A    between atoms: _389  and  _390
REMARK  156  A    between atoms: _393  and  _395
REMARK  157  A    between atoms: _395  and  _396
REMARK  158  A    between atoms: _395  and  _398
REMARK  159  A    between atoms: _398  and  _399
REMARK                            x       y       z     vdW  Elec       q    Type
REMARK                         _______ _______ _______ _____ _____    ______ ____
ROOT
ATOM      1  O   HOH     1      22.159  83.194  -1.016  0.00  0.00    +0.000 OA
ENDROOT
TORSDOF 0
REMARK  Name = ../refined-set-2016/2bfr/2bfr_pocket.pdb
REMARK  159 active torsions:
REMARK  status: ('A' for Active; 'I' for Inactive)
REMARK    1  A    between atoms: _1  and  _3
REMARK    2  A    between atoms: _3  and  _4
REMARK    3  A    between atoms: _7  and  _9
REMARK    4  A    between atoms: _9  and  _10
REMARK    5  A    between atoms: _9  and  _12
REMARK    6  A    between atoms: _12  and  _13
REMARK    7  A    between atoms: _13  and  _14
REMARK    8  A    between atoms: _19  and  _21
REMARK    9  A    between atoms: _21  and  _22
REMARK   10  A    between atoms: _24  and  _26
REMARK   11  A    between atoms: _26  and  _27
REMARK   12  A    between atoms: _26  and  _29
REMARK   13  A    between atoms: _29  and  _30
REMARK   14  A    between atoms: _33  and  _35
REMARK   15  A    between atoms: _35  and  _36
REMARK   16  A    between atoms: _35  and  _38
REMARK   17  A    between atoms: _38  and  _39
REMARK   18  A    between atoms: _42  and  _44
REMARK   19  A    between atoms: _44  and  _45
REMARK   20  A    between atoms: _44  and  _47
REMARK   21  A    between atoms: _47  and  _48
REMARK   22  A    between atoms: _51  and  _53
REMARK   23  A    between atoms: _53  and  _54
REMARK   24  A    between atoms: _53  and  _56
REMARK   25  A    between atoms: _56  and  _57
REMARK   26  A    between atoms: _57  and  _58
REMARK   27  A    between atoms: _63  and  _65
REMARK   28  A    between atoms: _65  and  _66
REMARK   29  A    between atoms: _65  and  _68
REMARK   30  A    between atoms: _68  and  _69
REMARK   31  A    between atoms: _74  and  _75
REMARK   32  A    between atoms: _77  and  _79
REMARK   33  A    between atoms: _79  and  _80
REMARK   34  A    between atoms: _79  and  _82
REMARK   35  A    between atoms: _85  and  _87
REMARK   36  A    between atoms: _87  and  _88
REMARK   37  A    between atoms: _87  and  _90
REMARK   38  A    between atoms: _90  and  _91
REMARK   39  A    between atoms: _96  and  _98
REMARK   40  A    between atoms: _98  and  _99
REMARK   41  A    between atoms: _102  and  _104
REMARK   42  A    between atoms: _104  and  _105
REMARK   43  A    between atoms: _108  and  _110
REMARK   44  A    between atoms: _110  and  _111
REMARK   45  A    between atoms: _110  and  _113
REMARK   46  A    between atoms: _113  and  _114
REMARK   47  A    between atoms: _119  and  _121
REMARK   48  A    between atoms: _121  and  _122
REMARK   49  A    between atoms: _124  and  _126
REMARK   50  A    between atoms: _126  and  _127
REMARK   51  A    between atoms: _129  and  _131
REMARK   52  A    between atoms: _131  and  _132
REMARK   53  A    between atoms: _131  and  _134
REMARK   54  A    between atoms: _137  and  _139
REMARK   55  A    between atoms: _139  and  _140
REMARK   56  A    between atoms: _143  and  _145
REMARK   57  A    between atoms: _145  and  _146
REMARK   58  A    between atoms: _145  and  _148
REMARK   59  A    between atoms: _148  and  _149
REMARK   60  A    between atoms: _154  and  _155
REMARK   61  A    between atoms: _157  and  _159
REMARK   62  A    between atoms: _159  and  _160
REMARK   63  A    between atoms: _163  and  _165
REMARK   64  A    between atoms: _165  and  _166
REMARK   65  A    between atoms: _165  and  _168
REMARK   66  A    between atoms: _168  and  _169
REMARK   67  A    between atoms: _172  and  _174
REMARK   68  A    between atoms: _174  and  _175
REMARK   69  A    between atoms: _178  and  _180
REMARK   70  A    between atoms: _180  and  _181
REMARK   71  A    between atoms: _180  and  _183
REMARK   72  A    between atoms: _183  and  _184
REMARK   73  A    between atoms: _187  and  _189
REMARK   74  A    between atoms: _189  and  _190
REMARK   75  A    between atoms: _189  and  _192
REMARK   76  A    between atoms: _195  and  _197
REMARK   77  A    between atoms: _197  and  _198
REMARK   78  A    between atoms: _201  and  _202
REMARK   79  A    between atoms: _207  and  _209
REMARK   80  A    between atoms: _209  and  _210
REMARK   81  A    between atoms: _209  and  _212
REMARK   82  A    between atoms: _212  and  _213
REMARK   83  A    between atoms: _216  and  _218
REMARK   84  A    between atoms: _218  and  _219
REMARK   85  A    between atoms: _218  and  _221
REMARK   86  A    between atoms: _221  and  _222
REMARK   87  A    between atoms: _222  and  _326
REMARK   88  A    between atoms: _223  and  _225
REMARK   89  A    between atoms: _225  and  _226
REMARK   90  A    between atoms: _225  and  _228
REMARK   91  A    between atoms: _228  and  _229
REMARK   92  A    between atoms: _231  and  _233
REMARK   93  A    between atoms: _233  and  _234
REMARK   94  A    between atoms: _233  and  _236
REMARK   95  A    between atoms: _236  and  _237
REMARK   96  A    between atoms: _240  and  _242
REMARK   97  A    between atoms: _242  and  _243
REMARK   98  A    between atoms: _242  and  _245
REMARK   99  A    between atoms: _245  and  _246
REMARK  100  A    between atoms: _253  and  _254
REMARK  101  A    between atoms: _259  and  _261
REMARK  102  A    between atoms: _261  and  _262
REMARK  103  A    between atoms: _265  and  _267
REMARK  104  A    between atoms: _267  and  _268
REMARK  105  A    between atoms: _267  and  _270
REMARK  106  A    between atoms: _273  and  _275
REMARK  107  A    between atoms: _275  and  _276
REMARK  108  A    between atoms: _275  and  _278
REMARK  109  A    between atoms: _278  and  _279
REMARK  110  A    between atoms: _281  and  _283
REMARK  111  A    between atoms: _283  and  _284
REMARK  112  A    between atoms: _287  and  _289
REMARK  113  A    between atoms: _289  and  _290
REMARK  114  A    between atoms: _292  and  _294
REMARK  115  A    between atoms: _294  and  _295
REMARK  116  A    between atoms: _294  and  _297
REMARK  117  A    between atoms: _297  and  _298
REMARK  118  A    between atoms: _301  and  _303
REMARK  119  A    between atoms: _303  and  _304
REMARK  120  A    between atoms: _303  and  _306
REMARK  121  A    between atoms: _306  and  _307
REMARK  122  A    between atoms: _312  and  _313
REMARK  123  A    between atoms: _315  and  _317
REMARK  124  A    between atoms: _317  and  _318
REMARK  125  A    between atoms: _320  and  _322
REMARK  126  A    between atoms: _322  and  _323
REMARK  127  A    between atoms: _322  and  _325
REMARK  128  A    between atoms: _325  and  _326
REMARK  129  A    between atoms: _327  and  _329
REMARK  130  A    between atoms: _329  and  _330
REMARK  131  A    between atoms: _329  and  _332
REMARK  132  A    between atoms: _332  and  _333
REMARK  133  A    between atoms: _336  and  _338
REMARK  134  A    between atoms: _338  and  _339
REMARK  135  A    between atoms: _338  and  _341
REMARK  136  A    between atoms: _344  and  _346
REMARK  137  A    between atoms: _346  and  _347
REMARK  138  A    between atoms: _346  and  _349
REMARK  139  A    between atoms: _349  and  _350
REMARK  140  A    between atoms: _353  and  _355
REMARK  141  A    between atoms: _355  and  _356
REMARK  142  A    between atoms: _355  and  _358
REMARK  143  A    between atoms: _361  and  _363
REMARK  144  A    between atoms: _363  and  _364
REMARK  145  A    between atoms: _363  and  _366
REMARK  146  A    between atoms: _366  and  _367
REMARK  147  A    between atoms: _370  and  _372
REMARK  148  A    between atoms: _372  and  _373
REMARK  149  A    between atoms: _372  and  _375
REMARK  150  A    between atoms: _375  and  _376
REMARK  151  A    between atoms: _381  and  _382
REMARK  152  A    between atoms: _384  and  _386
REMARK  153  A    between atoms: _386  and  _387
REMARK  154  A    between atoms: _386  and  _389
REMARK  155  A    between atoms: _389  and  _390
REMARK  156  A    between atoms: _393  and  _395
REMARK  157  A    between atoms: _395  and  _396
REMARK  158  A    between atoms: _395  and  _398
REMARK  159  A    between atoms: _398  and  _399
REMARK                            x       y       z     vdW  Elec       q    Type
REMARK                         _______ _______ _______ _____ _____    ______ ____
ROOT
ATOM      1  O   HOH     1      24.482  80.664   4.094  0.00  0.00    +0.000 OA
ENDROOT
TORSDOF 0
REMARK  Name = ../refined-set-2016/2bfr/2bfr_pocket.pdb
REMARK  159 active torsions:
REMARK  status: ('A' for Active; 'I' for Inactive)
REMARK    1  A    between atoms: _1  and  _3
REMARK    2  A    between atoms: _3  and  _4
REMARK    3  A    between atoms: _7  and  _9
REMARK    4  A    between atoms: _9  and  _10
REMARK    5  A    between atoms: _9  and  _12
REMARK    6  A    between atoms: _12  and  _13
REMARK    7  A    between atoms: _13  and  _14
REMARK    8  A    between atoms: _19  and  _21
REMARK    9  A    between atoms: _21  and  _22
REMARK   10  A    between atoms: _24  and  _26
REMARK   11  A    between atoms: _26  and  _27
REMARK   12  A    between atoms: _26  and  _29
REMARK   13  A    between atoms: _29  and  _30
REMARK   14  A    between atoms: _33  and  _35
REMARK   15  A    between atoms: _35  and  _36
REMARK   16  A    between atoms: _35  and  _38
REMARK   17  A    between atoms: _38  and  _39
REMARK   18  A    between atoms: _42  and  _44
REMARK   19  A    between atoms: _44  and  _45
REMARK   20  A    between atoms: _44  and  _47
REMARK   21  A    between atoms: _47  and  _48
REMARK   22  A    between atoms: _51  and  _53
REMARK   23  A    between atoms: _53  and  _54
REMARK   24  A    between atoms: _53  and  _56
REMARK   25  A    between atoms: _56  and  _57
REMARK   26  A    between atoms: _57  and  _58
REMARK   27  A    between atoms: _63  and  _65
REMARK   28  A    between atoms: _65  and  _66
REMARK   29  A    between atoms: _65  and  _68
REMARK   30  A    between atoms: _68  and  _69
REMARK   31  A    between atoms: _74  and  _75
REMARK   32  A    between atoms: _77  and  _79
REMARK   33  A    between atoms: _79  and  _80
REMARK   34  A    between atoms: _79  and  _82
REMARK   35  A    between atoms: _85  and  _87
REMARK   36  A    between atoms: _87  and  _88
REMARK   37  A    between atoms: _87  and  _90
REMARK   38  A    between atoms: _90  and  _91
REMARK   39  A    between atoms: _96  and  _98
REMARK   40  A    between atoms: _98  and  _99
REMARK   41  A    between atoms: _102  and  _104
REMARK   42  A    between atoms: _104  and  _105
REMARK   43  A    between atoms: _108  and  _110
REMARK   44  A    between atoms: _110  and  _111
REMARK   45  A    between atoms: _110  and  _113
REMARK   46  A    between atoms: _113  and  _114
REMARK   47  A    between atoms: _119  and  _121
REMARK   48  A    between atoms: _121  and  _122
REMARK   49  A    between atoms: _124  and  _126
REMARK   50  A    between atoms: _126  and  _127
REMARK   51  A    between atoms: _129  and  _131
REMARK   52  A    between atoms: _131  and  _132
REMARK   53  A    between atoms: _131  and  _134
REMARK   54  A    between atoms: _137  and  _139
REMARK   55  A    between atoms: _139  and  _140
REMARK   56  A    between atoms: _143  and  _145
REMARK   57  A    between atoms: _145  and  _146
REMARK   58  A    between atoms: _145  and  _148
REMARK   59  A    between atoms: _148  and  _149
REMARK   60  A    between atoms: _154  and  _155
REMARK   61  A    between atoms: _157  and  _159
REMARK   62  A    between atoms: _159  and  _160
REMARK   63  A    between atoms: _163  and  _165
REMARK   64  A    between atoms: _165  and  _166
REMARK   65  A    between atoms: _165  and  _168
REMARK   66  A    between atoms: _168  and  _169
REMARK   67  A    between atoms: _172  and  _174
REMARK   68  A    between atoms: _174  and  _175
REMARK   69  A    between atoms: _178  and  _180
REMARK   70  A    between atoms: _180  and  _181
REMARK   71  A    between atoms: _180  and  _183
REMARK   72  A    between atoms: _183  and  _184
REMARK   73  A    between atoms: _187  and  _189
REMARK   74  A    between atoms: _189  and  _190
REMARK   75  A    between atoms: _189  and  _192
REMARK   76  A    between atoms: _195  and  _197
REMARK   77  A    between atoms: _197  and  _198
REMARK   78  A    between atoms: _201  and  _202
REMARK   79  A    between atoms: _207  and  _209
REMARK   80  A    between atoms: _209  and  _210
REMARK   81  A    between atoms: _209  and  _212
REMARK   82  A    between atoms: _212  and  _213
REMARK   83  A    between atoms: _216  and  _218
REMARK   84  A    between atoms: _218  and  _219
REMARK   85  A    between atoms: _218  and  _221
REMARK   86  A    between atoms: _221  and  _222
REMARK   87  A    between atoms: _222  and  _326
REMARK   88  A    between atoms: _223  and  _225
REMARK   89  A    between atoms: _225  and  _226
REMARK   90  A    between atoms: _225  and  _228
REMARK   91  A    between atoms: _228  and  _229
REMARK   92  A    between atoms: _231  and  _233
REMARK   93  A    between atoms: _233  and  _234
REMARK   94  A    between atoms: _233  and  _236
REMARK   95  A    between atoms: _236  and  _237
REMARK   96  A    between atoms: _240  and  _242
REMARK   97  A    between atoms: _242  and  _243
REMARK   98  A    between atoms: _242  and  _245
REMARK   99  A    between atoms: _245  and  _246
REMARK  100  A    between atoms: _253  and  _254
REMARK  101  A    between atoms: _259  and  _261
REMARK  102  A    between atoms: _261  and  _262
REMARK  103  A    between atoms: _265  and  _267
REMARK  104  A    between atoms: _267  and  _268
REMARK  105  A    between atoms: _267  and  _270
REMARK  106  A    between atoms: _273  and  _275
REMARK  107  A    between atoms: _275  and  _276
REMARK  108  A    between atoms: _275  and  _278
REMARK  109  A    between atoms: _278  and  _279
REMARK  110  A    between atoms: _281  and  _283
REMARK  111  A    between atoms: _283  and  _284
REMARK  112  A    between atoms: _287  and  _289
REMARK  113  A    between atoms: _289  and  _290
REMARK  114  A    between atoms: _292  and  _294
REMARK  115  A    between atoms: _294  and  _295
REMARK  116  A    between atoms: _294  and  _297
REMARK  117  A    between atoms: _297  and  _298
REMARK  118  A    between atoms: _301  and  _303
REMARK  119  A    between atoms: _303  and  _304
REMARK  120  A    between atoms: _303  and  _306
REMARK  121  A    between atoms: _306  and  _307
REMARK  122  A    between atoms: _312  and  _313
REMARK  123  A    between atoms: _315  and  _317
REMARK  124  A    between atoms: _317  and  _318
REMARK  125  A    between atoms: _320  and  _322
REMARK  126  A    between atoms: _322  and  _323
REMARK  127  A    between atoms: _322  and  _325
REMARK  128  A    between atoms: _325  and  _326
REMARK  129  A    between atoms: _327  and  _329
REMARK  130  A    between atoms: _329  and  _330
REMARK  131  A    between atoms: _329  and  _332
REMARK  132  A    between atoms: _332  and  _333
REMARK  133  A    between atoms: _336  and  _338
REMARK  134  A    between atoms: _338  and  _339
REMARK  135  A    between atoms: _338  and  _341
REMARK  136  A    between atoms: _344  and  _346
REMARK  137  A    between atoms: _346  and  _347
REMARK  138  A    between atoms: _346  and  _349
REMARK  139  A    between atoms: _349  and  _350
REMARK  140  A    between atoms: _353  and  _355
REMARK  141  A    between atoms: _355  and  _356
REMARK  142  A    between atoms: _355  and  _358
REMARK  143  A    between atoms: _361  and  _363
REMARK  144  A    between atoms: _363  and  _364
REMARK  145  A    between atoms: _363  and  _366
REMARK  146  A    between atoms: _366  and  _367
REMARK  147  A    between atoms: _370  and  _372
REMARK  148  A    between atoms: _372  and  _373
REMARK  149  A    between atoms: _372  and  _375
REMARK  150  A    between atoms: _375  and  _376
REMARK  151  A    between atoms: _381  and  _382
REMARK  152  A    between atoms: _384  and  _386
REMARK  153  A    between atoms: _386  and  _387
REMARK  154  A    between atoms: _386  and  _389
REMARK  155  A    between atoms: _389  and  _390
REMARK  156  A    between atoms: _393  and  _395
REMARK  157  A    between atoms: _395  and  _396
REMARK  158  A    between atoms: _395  and  _398
REMARK  159  A    between atoms: _398  and  _399
REMARK                            x       y       z     vdW  Elec       q    Type
REMARK                         _______ _______ _______ _____ _____    ______ ____
ROOT
ATOM      1  O   HOH     1      23.018  79.888   8.684  0.00  0.00    +0.000 OA
ENDROOT
TORSDOF 0
REMARK  Name = ../refined-set-2016/2bfr/2bfr_pocket.pdb
REMARK  159 active torsions:
REMARK  status: ('A' for Active; 'I' for Inactive)
REMARK    1  A    between atoms: _1  and  _3
REMARK    2  A    between atoms: _3  and  _4
REMARK    3  A    between atoms: _7  and  _9
REMARK    4  A    between atoms: _9  and  _10
REMARK    5  A    between atoms: _9  and  _12
REMARK    6  A    between atoms: _12  and  _13
REMARK    7  A    between atoms: _13  and  _14
REMARK    8  A    between atoms: _19  and  _21
REMARK    9  A    between atoms: _21  and  _22
REMARK   10  A    between atoms: _24  and  _26
REMARK   11  A    between atoms: _26  and  _27
REMARK   12  A    between atoms: _26  and  _29
REMARK   13  A    between atoms: _29  and  _30
REMARK   14  A    between atoms: _33  and  _35
REMARK   15  A    between atoms: _35  and  _36
REMARK   16  A    between atoms: _35  and  _38
REMARK   17  A    between atoms: _38  and  _39
REMARK   18  A    between atoms: _42  and  _44
REMARK   19  A    between atoms: _44  and  _45
REMARK   20  A    between atoms: _44  and  _47
REMARK   21  A    between atoms: _47  and  _48
REMARK   22  A    between atoms: _51  and  _53
REMARK   23  A    between atoms: _53  and  _54
REMARK   24  A    between atoms: _53  and  _56
REMARK   25  A    between atoms: _56  and  _57
REMARK   26  A    between atoms: _57  and  _58
REMARK   27  A    between atoms: _63  and  _65
REMARK   28  A    between atoms: _65  and  _66
REMARK   29  A    between atoms: _65  and  _68
REMARK   30  A    between atoms: _68  and  _69
REMARK   31  A    between atoms: _74  and  _75
REMARK   32  A    between atoms: _77  and  _79
REMARK   33  A    between atoms: _79  and  _80
REMARK   34  A    between atoms: _79  and  _82
REMARK   35  A    between atoms: _85  and  _87
REMARK   36  A    between atoms: _87  and  _88
REMARK   37  A    between atoms: _87  and  _90
REMARK   38  A    between atoms: _90  and  _91
REMARK   39  A    between atoms: _96  and  _98
REMARK   40  A    between atoms: _98  and  _99
REMARK   41  A    between atoms: _102  and  _104
REMARK   42  A    between atoms: _104  and  _105
REMARK   43  A    between atoms: _108  and  _110
REMARK   44  A    between atoms: _110  and  _111
REMARK   45  A    between atoms: _110  and  _113
REMARK   46  A    between atoms: _113  and  _114
REMARK   47  A    between atoms: _119  and  _121
REMARK   48  A    between atoms: _121  and  _122
REMARK   49  A    between atoms: _124  and  _126
REMARK   50  A    between atoms: _126  and  _127
REMARK   51  A    between atoms: _129  and  _131
REMARK   52  A    between atoms: _131  and  _132
REMARK   53  A    between atoms: _131  and  _134
REMARK   54  A    between atoms: _137  and  _139
REMARK   55  A    between atoms: _139  and  _140
REMARK   56  A    between atoms: _143  and  _145
REMARK   57  A    between atoms: _145  and  _146
REMARK   58  A    between atoms: _145  and  _148
REMARK   59  A    between atoms: _148  and  _149
REMARK   60  A    between atoms: _154  and  _155
REMARK   61  A    between atoms: _157  and  _159
REMARK   62  A    between atoms: _159  and  _160
REMARK   63  A    between atoms: _163  and  _165
REMARK   64  A    between atoms: _165  and  _166
REMARK   65  A    between atoms: _165  and  _168
REMARK   66  A    between atoms: _168  and  _169
REMARK   67  A    between atoms: _172  and  _174
REMARK   68  A    between atoms: _174  and  _175
REMARK   69  A    between atoms: _178  and  _180
REMARK   70  A    between atoms: _180  and  _181
REMARK   71  A    between atoms: _180  and  _183
REMARK   72  A    between atoms: _183  and  _184
REMARK   73  A    between atoms: _187  and  _189
REMARK   74  A    between atoms: _189  and  _190
REMARK   75  A    between atoms: _189  and  _192
REMARK   76  A    between atoms: _195  and  _197
REMARK   77  A    between atoms: _197  and  _198
REMARK   78  A    between atoms: _201  and  _202
REMARK   79  A    between atoms: _207  and  _209
REMARK   80  A    between atoms: _209  and  _210
REMARK   81  A    between atoms: _209  and  _212
REMARK   82  A    between atoms: _212  and  _213
REMARK   83  A    between atoms: _216  and  _218
REMARK   84  A    between atoms: _218  and  _219
REMARK   85  A    between atoms: _218  and  _221
REMARK   86  A    between atoms: _221  and  _222
REMARK   87  A    between atoms: _222  and  _326
REMARK   88  A    between atoms: _223  and  _225
REMARK   89  A    between atoms: _225  and  _226
REMARK   90  A    between atoms: _225  and  _228
REMARK   91  A    between atoms: _228  and  _229
REMARK   92  A    between atoms: _231  and  _233
REMARK   93  A    between atoms: _233  and  _234
REMARK   94  A    between atoms: _233  and  _236
REMARK   95  A    between atoms: _236  and  _237
REMARK   96  A    between atoms: _240  and  _242
REMARK   97  A    between atoms: _242  and  _243
REMARK   98  A    between atoms: _242  and  _245
REMARK   99  A    between atoms: _245  and  _246
REMARK  100  A    between atoms: _253  and  _254
REMARK  101  A    between atoms: _259  and  _261
REMARK  102  A    between atoms: _261  and  _262
REMARK  103  A    between atoms: _265  and  _267
REMARK  104  A    between atoms: _267  and  _268
REMARK  105  A    between atoms: _267  and  _270
REMARK  106  A    between atoms: _273  and  _275
REMARK  107  A    between atoms: _275  and  _276
REMARK  108  A    between atoms: _275  and  _278
REMARK  109  A    between atoms: _278  and  _279
REMARK  110  A    between atoms: _281  and  _283
REMARK  111  A    between atoms: _283  and  _284
REMARK  112  A    between atoms: _287  and  _289
REMARK  113  A    between atoms: _289  and  _290
REMARK  114  A    between atoms: _292  and  _294
REMARK  115  A    between atoms: _294  and  _295
REMARK  116  A    between atoms: _294  and  _297
REMARK  117  A    between atoms: _297  and  _298
REMARK  118  A    between atoms: _301  and  _303
REMARK  119  A    between atoms: _303  and  _304
REMARK  120  A    between atoms: _303  and  _306
REMARK  121  A    between atoms: _306  and  _307
REMARK  122  A    between atoms: _312  and  _313
REMARK  123  A    between atoms: _315  and  _317
REMARK  124  A    between atoms: _317  and  _318
REMARK  125  A    between atoms: _320  and  _322
REMARK  126  A    between atoms: _322  and  _323
REMARK  127  A    between atoms: _322  and  _325
REMARK  128  A    between atoms: _325  and  _326
REMARK  129  A    between atoms: _327  and  _329
REMARK  130  A    between atoms: _329  and  _330
REMARK  131  A    between atoms: _329  and  _332
REMARK  132  A    between atoms: _332  and  _333
REMARK  133  A    between atoms: _336  and  _338
REMARK  134  A    between atoms: _338  and  _339
REMARK  135  A    between atoms: _338  and  _341
REMARK  136  A    between atoms: _344  and  _346
REMARK  137  A    between atoms: _346  and  _347
REMARK  138  A    between atoms: _346  and  _349
REMARK  139  A    between atoms: _349  and  _350
REMARK  140  A    between atoms: _353  and  _355
REMARK  141  A    between atoms: _355  and  _356
REMARK  142  A    between atoms: _355  and  _358
REMARK  143  A    between atoms: _361  and  _363
REMARK  144  A    between atoms: _363  and  _364
REMARK  145  A    between atoms: _363  and  _366
REMARK  146  A    between atoms: _366  and  _367
REMARK  147  A    between atoms: _370  and  _372
REMARK  148  A    between atoms: _372  and  _373
REMARK  149  A    between atoms: _372  and  _375
REMARK  150  A    between atoms: _375  and  _376
REMARK  151  A    between atoms: _381  and  _382
REMARK  152  A    between atoms: _384  and  _386
REMARK  153  A    between atoms: _386  and  _387
REMARK  154  A    between atoms: _386  and  _389
REMARK  155  A    between atoms: _389  and  _390
REMARK  156  A    between atoms: _393  and  _395
REMARK  157  A    between atoms: _395  and  _396
REMARK  158  A    between atoms: _395  and  _398
REMARK  159  A    between atoms: _398  and  _399
REMARK                            x       y       z     vdW  Elec       q    Type
REMARK                         _______ _______ _______ _____ _____    ______ ____
ROOT
ATOM      1  O   HOH     1      15.353  72.461  -7.758  0.00  0.00    +0.000 OA
ENDROOT
TORSDOF 0
REMARK  Name = ../refined-set-2016/2bfr/2bfr_pocket.pdb
REMARK  159 active torsions:
REMARK  status: ('A' for Active; 'I' for Inactive)
REMARK    1  A    between atoms: _1  and  _3
REMARK    2  A    between atoms: _3  and  _4
REMARK    3  A    between atoms: _7  and  _9
REMARK    4  A    between atoms: _9  and  _10
REMARK    5  A    between atoms: _9  and  _12
REMARK    6  A    between atoms: _12  and  _13
REMARK    7  A    between atoms: _13  and  _14
REMARK    8  A    between atoms: _19  and  _21
REMARK    9  A    between atoms: _21  and  _22
REMARK   10  A    between atoms: _24  and  _26
REMARK   11  A    between atoms: _26  and  _27
REMARK   12  A    between atoms: _26  and  _29
REMARK   13  A    between atoms: _29  and  _30
REMARK   14  A    between atoms: _33  and  _35
REMARK   15  A    between atoms: _35  and  _36
REMARK   16  A    between atoms: _35  and  _38
REMARK   17  A    between atoms: _38  and  _39
REMARK   18  A    between atoms: _42  and  _44
REMARK   19  A    between atoms: _44  and  _45
REMARK   20  A    between atoms: _44  and  _47
REMARK   21  A    between atoms: _47  and  _48
REMARK   22  A    between atoms: _51  and  _53
REMARK   23  A    between atoms: _53  and  _54
REMARK   24  A    between atoms: _53  and  _56
REMARK   25  A    between atoms: _56  and  _57
REMARK   26  A    between atoms: _57  and  _58
REMARK   27  A    between atoms: _63  and  _65
REMARK   28  A    between atoms: _65  and  _66
REMARK   29  A    between atoms: _65  and  _68
REMARK   30  A    between atoms: _68  and  _69
REMARK   31  A    between atoms: _74  and  _75
REMARK   32  A    between atoms: _77  and  _79
REMARK   33  A    between atoms: _79  and  _80
REMARK   34  A    between atoms: _79  and  _82
REMARK   35  A    between atoms: _85  and  _87
REMARK   36  A    between atoms: _87  and  _88
REMARK   37  A    between atoms: _87  and  _90
REMARK   38  A    between atoms: _90  and  _91
REMARK   39  A    between atoms: _96  and  _98
REMARK   40  A    between atoms: _98  and  _99
REMARK   41  A    between atoms: _102  and  _104
REMARK   42  A    between atoms: _104  and  _105
REMARK   43  A    between atoms: _108  and  _110
REMARK   44  A    between atoms: _110  and  _111
REMARK   45  A    between atoms: _110  and  _113
REMARK   46  A    between atoms: _113  and  _114
REMARK   47  A    between atoms: _119  and  _121
REMARK   48  A    between atoms: _121  and  _122
REMARK   49  A    between atoms: _124  and  _126
REMARK   50  A    between atoms: _126  and  _127
REMARK   51  A    between atoms: _129  and  _131
REMARK   52  A    between atoms: _131  and  _132
REMARK   53  A    between atoms: _131  and  _134
REMARK   54  A    between atoms: _137  and  _139
REMARK   55  A    between atoms: _139  and  _140
REMARK   56  A    between atoms: _143  and  _145
REMARK   57  A    between atoms: _145  and  _146
REMARK   58  A    between atoms: _145  and  _148
REMARK   59  A    between atoms: _148  and  _149
REMARK   60  A    between atoms: _154  and  _155
REMARK   61  A    between atoms: _157  and  _159
REMARK   62  A    between atoms: _159  and  _160
REMARK   63  A    between atoms: _163  and  _165
REMARK   64  A    between atoms: _165  and  _166
REMARK   65  A    between atoms: _165  and  _168
REMARK   66  A    between atoms: _168  and  _169
REMARK   67  A    between atoms: _172  and  _174
REMARK   68  A    between atoms: _174  and  _175
REMARK   69  A    between atoms: _178  and  _180
REMARK   70  A    between atoms: _180  and  _181
REMARK   71  A    between atoms: _180  and  _183
REMARK   72  A    between atoms: _183  and  _184
REMARK   73  A    between atoms: _187  and  _189
REMARK   74  A    between atoms: _189  and  _190
REMARK   75  A    between atoms: _189  and  _192
REMARK   76  A    between atoms: _195  and  _197
REMARK   77  A    between atoms: _197  and  _198
REMARK   78  A    between atoms: _201  and  _202
REMARK   79  A    between atoms: _207  and  _209
REMARK   80  A    between atoms: _209  and  _210
REMARK   81  A    between atoms: _209  and  _212
REMARK   82  A    between atoms: _212  and  _213
REMARK   83  A    between atoms: _216  and  _218
REMARK   84  A    between atoms: _218  and  _219
REMARK   85  A    between atoms: _218  and  _221
REMARK   86  A    between atoms: _221  and  _222
REMARK   87  A    between atoms: _222  and  _326
REMARK   88  A    between atoms: _223  and  _225
REMARK   89  A    between atoms: _225  and  _226
REMARK   90  A    between atoms: _225  and  _228
REMARK   91  A    between atoms: _228  and  _229
REMARK   92  A    between atoms: _231  and  _233
REMARK   93  A    between atoms: _233  and  _234
REMARK   94  A    between atoms: _233  and  _236
REMARK   95  A    between atoms: _236  and  _237
REMARK   96  A    between atoms: _240  and  _242
REMARK   97  A    between atoms: _242  and  _243
REMARK   98  A    between atoms: _242  and  _245
REMARK   99  A    between atoms: _245  and  _246
REMARK  100  A    between atoms: _253  and  _254
REMARK  101  A    between atoms: _259  and  _261
REMARK  102  A    between atoms: _261  and  _262
REMARK  103  A    between atoms: _265  and  _267
REMARK  104  A    between atoms: _267  and  _268
REMARK  105  A    between atoms: _267  and  _270
REMARK  106  A    between atoms: _273  and  _275
REMARK  107  A    between atoms: _275  and  _276
REMARK  108  A    between atoms: _275  and  _278
REMARK  109  A    between atoms: _278  and  _279
REMARK  110  A    between atoms: _281  and  _283
REMARK  111  A    between atoms: _283  and  _284
REMARK  112  A    between atoms: _287  and  _289
REMARK  113  A    between atoms: _289  and  _290
REMARK  114  A    between atoms: _292  and  _294
REMARK  115  A    between atoms: _294  and  _295
REMARK  116  A    between atoms: _294  and  _297
REMARK  117  A    between atoms: _297  and  _298
REMARK  118  A    between atoms: _301  and  _303
REMARK  119  A    between atoms: _303  and  _304
REMARK  120  A    between atoms: _303  and  _306
REMARK  121  A    between atoms: _306  and  _307
REMARK  122  A    between atoms: _312  and  _313
REMARK  123  A    between atoms: _315  and  _317
REMARK  124  A    between atoms: _317  and  _318
REMARK  125  A    between atoms: _320  and  _322
REMARK  126  A    between atoms: _322  and  _323
REMARK  127  A    between atoms: _322  and  _325
REMARK  128  A    between atoms: _325  and  _326
REMARK  129  A    between atoms: _327  and  _329
REMARK  130  A    between atoms: _329  and  _330
REMARK  131  A    between atoms: _329  and  _332
REMARK  132  A    between atoms: _332  and  _333
REMARK  133  A    between atoms: _336  and  _338
REMARK  134  A    between atoms: _338  and  _339
REMARK  135  A    between atoms: _338  and  _341
REMARK  136  A    between atoms: _344  and  _346
REMARK  137  A    between atoms: _346  and  _347
REMARK  138  A    between atoms: _346  and  _349
REMARK  139  A    between atoms: _349  and  _350
REMARK  140  A    between atoms: _353  and  _355
REMARK  141  A    between atoms: _355  and  _356
REMARK  142  A    between atoms: _355  and  _358
REMARK  143  A    between atoms: _361  and  _363
REMARK  144  A    between atoms: _363  and  _364
REMARK  145  A    between atoms: _363  and  _366
REMARK  146  A    between atoms: _366  and  _367
REMARK  147  A    between atoms: _370  and  _372
REMARK  148  A    between atoms: _372  and  _373
REMARK  149  A    between atoms: _372  and  _375
REMARK  150  A    between atoms: _375  and  _376
REMARK  151  A    between atoms: _381  and  _382
REMARK  152  A    between atoms: _384  and  _386
REMARK  153  A    between atoms: _386  and  _387
REMARK  154  A    between atoms: _386  and  _389
REMARK  155  A    between atoms: _389  and  _390
REMARK  156  A    between atoms: _393  and  _395
REMARK  157  A    between atoms: _395  and  _396
REMARK  158  A    between atoms: _395  and  _398
REMARK  159  A    between atoms: _398  and  _399
REMARK                            x       y       z     vdW  Elec       q    Type
REMARK                         _______ _______ _______ _____ _____    ______ ____
ROOT
ATOM      1  O   HOH     1      12.038  78.469   0.248  0.00  0.00    +0.000 OA
ENDROOT
TORSDOF 0
REMARK  Name = ../refined-set-2016/2bfr/2bfr_pocket.pdb
REMARK  159 active torsions:
REMARK  status: ('A' for Active; 'I' for Inactive)
REMARK    1  A    between atoms: _1  and  _3
REMARK    2  A    between atoms: _3  and  _4
REMARK    3  A    between atoms: _7  and  _9
REMARK    4  A    between atoms: _9  and  _10
REMARK    5  A    between atoms: _9  and  _12
REMARK    6  A    between atoms: _12  and  _13
REMARK    7  A    between atoms: _13  and  _14
REMARK    8  A    between atoms: _19  and  _21
REMARK    9  A    between atoms: _21  and  _22
REMARK   10  A    between atoms: _24  and  _26
REMARK   11  A    between atoms: _26  and  _27
REMARK   12  A    between atoms: _26  and  _29
REMARK   13  A    between atoms: _29  and  _30
REMARK   14  A    between atoms: _33  and  _35
REMARK   15  A    between atoms: _35  and  _36
REMARK   16  A    between atoms: _35  and  _38
REMARK   17  A    between atoms: _38  and  _39
REMARK   18  A    between atoms: _42  and  _44
REMARK   19  A    between atoms: _44  and  _45
REMARK   20  A    between atoms: _44  and  _47
REMARK   21  A    between atoms: _47  and  _48
REMARK   22  A    between atoms: _51  and  _53
REMARK   23  A    between atoms: _53  and  _54
REMARK   24  A    between atoms: _53  and  _56
REMARK   25  A    between atoms: _56  and  _57
REMARK   26  A    between atoms: _57  and  _58
REMARK   27  A    between atoms: _63  and  _65
REMARK   28  A    between atoms: _65  and  _66
REMARK   29  A    between atoms: _65  and  _68
REMARK   30  A    between atoms: _68  and  _69
REMARK   31  A    between atoms: _74  and  _75
REMARK   32  A    between atoms: _77  and  _79
REMARK   33  A    between atoms: _79  and  _80
REMARK   34  A    between atoms: _79  and  _82
REMARK   35  A    between atoms: _85  and  _87
REMARK   36  A    between atoms: _87  and  _88
REMARK   37  A    between atoms: _87  and  _90
REMARK   38  A    between atoms: _90  and  _91
REMARK   39  A    between atoms: _96  and  _98
REMARK   40  A    between atoms: _98  and  _99
REMARK   41  A    between atoms: _102  and  _104
REMARK   42  A    between atoms: _104  and  _105
REMARK   43  A    between atoms: _108  and  _110
REMARK   44  A    between atoms: _110  and  _111
REMARK   45  A    between atoms: _110  and  _113
REMARK   46  A    between atoms: _113  and  _114
REMARK   47  A    between atoms: _119  and  _121
REMARK   48  A    between atoms: _121  and  _122
REMARK   49  A    between atoms: _124  and  _126
REMARK   50  A    between atoms: _126  and  _127
REMARK   51  A    between atoms: _129  and  _131
REMARK   52  A    between atoms: _131  and  _132
REMARK   53  A    between atoms: _131  and  _134
REMARK   54  A    between atoms: _137  and  _139
REMARK   55  A    between atoms: _139  and  _140
REMARK   56  A    between atoms: _143  and  _145
REMARK   57  A    between atoms: _145  and  _146
REMARK   58  A    between atoms: _145  and  _148
REMARK   59  A    between atoms: _148  and  _149
REMARK   60  A    between atoms: _154  and  _155
REMARK   61  A    between atoms: _157  and  _159
REMARK   62  A    between atoms: _159  and  _160
REMARK   63  A    between atoms: _163  and  _165
REMARK   64  A    between atoms: _165  and  _166
REMARK   65  A    between atoms: _165  and  _168
REMARK   66  A    between atoms: _168  and  _169
REMARK   67  A    between atoms: _172  and  _174
REMARK   68  A    between atoms: _174  and  _175
REMARK   69  A    between atoms: _178  and  _180
REMARK   70  A    between atoms: _180  and  _181
REMARK   71  A    between atoms: _180  and  _183
REMARK   72  A    between atoms: _183  and  _184
REMARK   73  A    between atoms: _187  and  _189
REMARK   74  A    between atoms: _189  and  _190
REMARK   75  A    between atoms: _189  and  _192
REMARK   76  A    between atoms: _195  and  _197
REMARK   77  A    between atoms: _197  and  _198
REMARK   78  A    between atoms: _201  and  _202
REMARK   79  A    between atoms: _207  and  _209
REMARK   80  A    between atoms: _209  and  _210
REMARK   81  A    between atoms: _209  and  _212
REMARK   82  A    between atoms: _212  and  _213
REMARK   83  A    between atoms: _216  and  _218
REMARK   84  A    between atoms: _218  and  _219
REMARK   85  A    between atoms: _218  and  _221
REMARK   86  A    between atoms: _221  and  _222
REMARK   87  A    between atoms: _222  and  _326
REMARK   88  A    between atoms: _223  and  _225
REMARK   89  A    between atoms: _225  and  _226
REMARK   90  A    between atoms: _225  and  _228
REMARK   91  A    between atoms: _228  and  _229
REMARK   92  A    between atoms: _231  and  _233
REMARK   93  A    between atoms: _233  and  _234
REMARK   94  A    between atoms: _233  and  _236
REMARK   95  A    between atoms: _236  and  _237
REMARK   96  A    between atoms: _240  and  _242
REMARK   97  A    between atoms: _242  and  _243
REMARK   98  A    between atoms: _242  and  _245
REMARK   99  A    between atoms: _245  and  _246
REMARK  100  A    between atoms: _253  and  _254
REMARK  101  A    between atoms: _259  and  _261
REMARK  102  A    between atoms: _261  and  _262
REMARK  103  A    between atoms: _265  and  _267
REMARK  104  A    between atoms: _267  and  _268
REMARK  105  A    between atoms: _267  and  _270
REMARK  106  A    between atoms: _273  and  _275
REMARK  107  A    between atoms: _275  and  _276
REMARK  108  A    between atoms: _275  and  _278
REMARK  109  A    between atoms: _278  and  _279
REMARK  110  A    between atoms: _281  and  _283
REMARK  111  A    between atoms: _283  and  _284
REMARK  112  A    between atoms: _287  and  _289
REMARK  113  A    between atoms: _289  and  _290
REMARK  114  A    between atoms: _292  and  _294
REMARK  115  A    between atoms: _294  and  _295
REMARK  116  A    between atoms: _294  and  _297
REMARK  117  A    between atoms: _297  and  _298
REMARK  118  A    between atoms: _301  and  _303
REMARK  119  A    between atoms: _303  and  _304
REMARK  120  A    between atoms: _303  and  _306
REMARK  121  A    between atoms: _306  and  _307
REMARK  122  A    between atoms: _312  and  _313
REMARK  123  A    between atoms: _315  and  _317
REMARK  124  A    between atoms: _317  and  _318
REMARK  125  A    between atoms: _320  and  _322
REMARK  126  A    between atoms: _322  and  _323
REMARK  127  A    between atoms: _322  and  _325
REMARK  128  A    between atoms: _325  and  _326
REMARK  129  A    between atoms: _327  and  _329
REMARK  130  A    between atoms: _329  and  _330
REMARK  131  A    between atoms: _329  and  _332
REMARK  132  A    between atoms: _332  and  _333
REMARK  133  A    between atoms: _336  and  _338
REMARK  134  A    between atoms: _338  and  _339
REMARK  135  A    between atoms: _338  and  _341
REMARK  136  A    between atoms: _344  and  _346
REMARK  137  A    between atoms: _346  and  _347
REMARK  138  A    between atoms: _346  and  _349
REMARK  139  A    between atoms: _349  and  _350
REMARK  140  A    between atoms: _353  and  _355
REMARK  141  A    between atoms: _355  and  _356
REMARK  142  A    between atoms: _355  and  _358
REMARK  143  A    between atoms: _361  and  _363
REMARK  144  A    between atoms: _363  and  _364
REMARK  145  A    between atoms: _363  and  _366
REMARK  146  A    between atoms: _366  and  _367
REMARK  147  A    between atoms: _370  and  _372
REMARK  148  A    between atoms: _372  and  _373
REMARK  149  A    between atoms: _372  and  _375
REMARK  150  A    between atoms: _375  and  _376
REMARK  151  A    between atoms: _381  and  _382
REMARK  152  A    between atoms: _384  and  _386
REMARK  153  A    between atoms: _386  and  _387
REMARK  154  A    between atoms: _386  and  _389
REMARK  155  A    between atoms: _389  and  _390
REMARK  156  A    between atoms: _393  and  _395
REMARK  157  A    between atoms: _395  and  _396
REMARK  158  A    between atoms: _395  and  _398
REMARK  159  A    between atoms: _398  and  _399
REMARK                            x       y       z     vdW  Elec       q    Type
REMARK                         _______ _______ _______ _____ _____    ______ ____
ROOT
ATOM      1  O   HOH     1       9.374  82.948  -9.638  0.00  0.00    +0.000 OA
ENDROOT
TORSDOF 0
REMARK  Name = ../refined-set-2016/2bfr/2bfr_pocket.pdb
REMARK  159 active torsions:
REMARK  status: ('A' for Active; 'I' for Inactive)
REMARK    1  A    between atoms: _1  and  _3
REMARK    2  A    between atoms: _3  and  _4
REMARK    3  A    between atoms: _7  and  _9
REMARK    4  A    between atoms: _9  and  _10
REMARK    5  A    between atoms: _9  and  _12
REMARK    6  A    between atoms: _12  and  _13
REMARK    7  A    between atoms: _13  and  _14
REMARK    8  A    between atoms: _19  and  _21
REMARK    9  A    between atoms: _21  and  _22
REMARK   10  A    between atoms: _24  and  _26
REMARK   11  A    between atoms: _26  and  _27
REMARK   12  A    between atoms: _26  and  _29
REMARK   13  A    between atoms: _29  and  _30
REMARK   14  A    between atoms: _33  and  _35
REMARK   15  A    between atoms: _35  and  _36
REMARK   16  A    between atoms: _35  and  _38
REMARK   17  A    between atoms: _38  and  _39
REMARK   18  A    between atoms: _42  and  _44
REMARK   19  A    between atoms: _44  and  _45
REMARK   20  A    between atoms: _44  and  _47
REMARK   21  A    between atoms: _47  and  _48
REMARK   22  A    between atoms: _51  and  _53
REMARK   23  A    between atoms: _53  and  _54
REMARK   24  A    between atoms: _53  and  _56
REMARK   25  A    between atoms: _56  and  _57
REMARK   26  A    between atoms: _57  and  _58
REMARK   27  A    between atoms: _63  and  _65
REMARK   28  A    between atoms: _65  and  _66
REMARK   29  A    between atoms: _65  and  _68
REMARK   30  A    between atoms: _68  and  _69
REMARK   31  A    between atoms: _74  and  _75
REMARK   32  A    between atoms: _77  and  _79
REMARK   33  A    between atoms: _79  and  _80
REMARK   34  A    between atoms: _79  and  _82
REMARK   35  A    between atoms: _85  and  _87
REMARK   36  A    between atoms: _87  and  _88
REMARK   37  A    between atoms: _87  and  _90
REMARK   38  A    between atoms: _90  and  _91
REMARK   39  A    between atoms: _96  and  _98
REMARK   40  A    between atoms: _98  and  _99
REMARK   41  A    between atoms: _102  and  _104
REMARK   42  A    between atoms: _104  and  _105
REMARK   43  A    between atoms: _108  and  _110
REMARK   44  A    between atoms: _110  and  _111
REMARK   45  A    between atoms: _110  and  _113
REMARK   46  A    between atoms: _113  and  _114
REMARK   47  A    between atoms: _119  and  _121
REMARK   48  A    between atoms: _121  and  _122
REMARK   49  A    between atoms: _124  and  _126
REMARK   50  A    between atoms: _126  and  _127
REMARK   51  A    between atoms: _129  and  _131
REMARK   52  A    between atoms: _131  and  _132
REMARK   53  A    between atoms: _131  and  _134
REMARK   54  A    between atoms: _137  and  _139
REMARK   55  A    between atoms: _139  and  _140
REMARK   56  A    between atoms: _143  and  _145
REMARK   57  A    between atoms: _145  and  _146
REMARK   58  A    between atoms: _145  and  _148
REMARK   59  A    between atoms: _148  and  _149
REMARK   60  A    between atoms: _154  and  _155
REMARK   61  A    between atoms: _157  and  _159
REMARK   62  A    between atoms: _159  and  _160
REMARK   63  A    between atoms: _163  and  _165
REMARK   64  A    between atoms: _165  and  _166
REMARK   65  A    between atoms: _165  and  _168
REMARK   66  A    between atoms: _168  and  _169
REMARK   67  A    between atoms: _172  and  _174
REMARK   68  A    between atoms: _174  and  _175
REMARK   69  A    between atoms: _178  and  _180
REMARK   70  A    between atoms: _180  and  _181
REMARK   71  A    between atoms: _180  and  _183
REMARK   72  A    between atoms: _183  and  _184
REMARK   73  A    between atoms: _187  and  _189
REMARK   74  A    between atoms: _189  and  _190
REMARK   75  A    between atoms: _189  and  _192
REMARK   76  A    between atoms: _195  and  _197
REMARK   77  A    between atoms: _197  and  _198
REMARK   78  A    between atoms: _201  and  _202
REMARK   79  A    between atoms: _207  and  _209
REMARK   80  A    between atoms: _209  and  _210
REMARK   81  A    between atoms: _209  and  _212
REMARK   82  A    between atoms: _212  and  _213
REMARK   83  A    between atoms: _216  and  _218
REMARK   84  A    between atoms: _218  and  _219
REMARK   85  A    between atoms: _218  and  _221
REMARK   86  A    between atoms: _221  and  _222
REMARK   87  A    between atoms: _222  and  _326
REMARK   88  A    between atoms: _223  and  _225
REMARK   89  A    between atoms: _225  and  _226
REMARK   90  A    between atoms: _225  and  _228
REMARK   91  A    between atoms: _228  and  _229
REMARK   92  A    between atoms: _231  and  _233
REMARK   93  A    between atoms: _233  and  _234
REMARK   94  A    between atoms: _233  and  _236
REMARK   95  A    between atoms: _236  and  _237
REMARK   96  A    between atoms: _240  and  _242
REMARK   97  A    between atoms: _242  and  _243
REMARK   98  A    between atoms: _242  and  _245
REMARK   99  A    between atoms: _245  and  _246
REMARK  100  A    between atoms: _253  and  _254
REMARK  101  A    between atoms: _259  and  _261
REMARK  102  A    between atoms: _261  and  _262
REMARK  103  A    between atoms: _265  and  _267
REMARK  104  A    between atoms: _267  and  _268
REMARK  105  A    between atoms: _267  and  _270
REMARK  106  A    between atoms: _273  and  _275
REMARK  107  A    between atoms: _275  and  _276
REMARK  108  A    between atoms: _275  and  _278
REMARK  109  A    between atoms: _278  and  _279
REMARK  110  A    between atoms: _281  and  _283
REMARK  111  A    between atoms: _283  and  _284
REMARK  112  A    between atoms: _287  and  _289
REMARK  113  A    between atoms: _289  and  _290
REMARK  114  A    between atoms: _292  and  _294
REMARK  115  A    between atoms: _294  and  _295
REMARK  116  A    between atoms: _294  and  _297
REMARK  117  A    between atoms: _297  and  _298
REMARK  118  A    between atoms: _301  and  _303
REMARK  119  A    between atoms: _303  and  _304
REMARK  120  A    between atoms: _303  and  _306
REMARK  121  A    between atoms: _306  and  _307
REMARK  122  A    between atoms: _312  and  _313
REMARK  123  A    between atoms: _315  and  _317
REMARK  124  A    between atoms: _317  and  _318
REMARK  125  A    between atoms: _320  and  _322
REMARK  126  A    between atoms: _322  and  _323
REMARK  127  A    between atoms: _322  and  _325
REMARK  128  A    between atoms: _325  and  _326
REMARK  129  A    between atoms: _327  and  _329
REMARK  130  A    between atoms: _329  and  _330
REMARK  131  A    between atoms: _329  and  _332
REMARK  132  A    between atoms: _332  and  _333
REMARK  133  A    between atoms: _336  and  _338
REMARK  134  A    between atoms: _338  and  _339
REMARK  135  A    between atoms: _338  and  _341
REMARK  136  A    between atoms: _344  and  _346
REMARK  137  A    between atoms: _346  and  _347
REMARK  138  A    between atoms: _346  and  _349
REMARK  139  A    between atoms: _349  and  _350
REMARK  140  A    between atoms: _353  and  _355
REMARK  141  A    between atoms: _355  and  _356
REMARK  142  A    between atoms: _355  and  _358
REMARK  143  A    between atoms: _361  and  _363
REMARK  144  A    between atoms: _363  and  _364
REMARK  145  A    between atoms: _363  and  _366
REMARK  146  A    between atoms: _366  and  _367
REMARK  147  A    between atoms: _370  and  _372
REMARK  148  A    between atoms: _372  and  _373
REMARK  149  A    between atoms: _372  and  _375
REMARK  150  A    between atoms: _375  and  _376
REMARK  151  A    between atoms: _381  and  _382
REMARK  152  A    between atoms: _384  and  _386
REMARK  153  A    between atoms: _386  and  _387
REMARK  154  A    between atoms: _386  and  _389
REMARK  155  A    between atoms: _389  and  _390
REMARK  156  A    between atoms: _393  and  _395
REMARK  157  A    between atoms: _395  and  _396
REMARK  158  A    between atoms: _395  and  _398
REMARK  159  A    between atoms: _398  and  _399
REMARK                            x       y       z     vdW  Elec       q    Type
REMARK                         _______ _______ _______ _____ _____    ______ ____
ROOT
ATOM      1  O   HOH     1      18.176  71.303 -13.242  0.00  0.00    +0.000 OA
ENDROOT
TORSDOF 0
REMARK  Name = ../refined-set-2016/2bfr/2bfr_pocket.pdb
REMARK  159 active torsions:
REMARK  status: ('A' for Active; 'I' for Inactive)
REMARK    1  A    between atoms: _1  and  _3
REMARK    2  A    between atoms: _3  and  _4
REMARK    3  A    between atoms: _7  and  _9
REMARK    4  A    between atoms: _9  and  _10
REMARK    5  A    between atoms: _9  and  _12
REMARK    6  A    between atoms: _12  and  _13
REMARK    7  A    between atoms: _13  and  _14
REMARK    8  A    between atoms: _19  and  _21
REMARK    9  A    between atoms: _21  and  _22
REMARK   10  A    between atoms: _24  and  _26
REMARK   11  A    between atoms: _26  and  _27
REMARK   12  A    between atoms: _26  and  _29
REMARK   13  A    between atoms: _29  and  _30
REMARK   14  A    between atoms: _33  and  _35
REMARK   15  A    between atoms: _35  and  _36
REMARK   16  A    between atoms: _35  and  _38
REMARK   17  A    between atoms: _38  and  _39
REMARK   18  A    between atoms: _42  and  _44
REMARK   19  A    between atoms: _44  and  _45
REMARK   20  A    between atoms: _44  and  _47
REMARK   21  A    between atoms: _47  and  _48
REMARK   22  A    between atoms: _51  and  _53
REMARK   23  A    between atoms: _53  and  _54
REMARK   24  A    between atoms: _53  and  _56
REMARK   25  A    between atoms: _56  and  _57
REMARK   26  A    between atoms: _57  and  _58
REMARK   27  A    between atoms: _63  and  _65
REMARK   28  A    between atoms: _65  and  _66
REMARK   29  A    between atoms: _65  and  _68
REMARK   30  A    between atoms: _68  and  _69
REMARK   31  A    between atoms: _74  and  _75
REMARK   32  A    between atoms: _77  and  _79
REMARK   33  A    between atoms: _79  and  _80
REMARK   34  A    between atoms: _79  and  _82
REMARK   35  A    between atoms: _85  and  _87
REMARK   36  A    between atoms: _87  and  _88
REMARK   37  A    between atoms: _87  and  _90
REMARK   38  A    between atoms: _90  and  _91
REMARK   39  A    between atoms: _96  and  _98
REMARK   40  A    between atoms: _98  and  _99
REMARK   41  A    between atoms: _102  and  _104
REMARK   42  A    between atoms: _104  and  _105
REMARK   43  A    between atoms: _108  and  _110
REMARK   44  A    between atoms: _110  and  _111
REMARK   45  A    between atoms: _110  and  _113
REMARK   46  A    between atoms: _113  and  _114
REMARK   47  A    between atoms: _119  and  _121
REMARK   48  A    between atoms: _121  and  _122
REMARK   49  A    between atoms: _124  and  _126
REMARK   50  A    between atoms: _126  and  _127
REMARK   51  A    between atoms: _129  and  _131
REMARK   52  A    between atoms: _131  and  _132
REMARK   53  A    between atoms: _131  and  _134
REMARK   54  A    between atoms: _137  and  _139
REMARK   55  A    between atoms: _139  and  _140
REMARK   56  A    between atoms: _143  and  _145
REMARK   57  A    between atoms: _145  and  _146
REMARK   58  A    between atoms: _145  and  _148
REMARK   59  A    between atoms: _148  and  _149
REMARK   60  A    between atoms: _154  and  _155
REMARK   61  A    between atoms: _157  and  _159
REMARK   62  A    between atoms: _159  and  _160
REMARK   63  A    between atoms: _163  and  _165
REMARK   64  A    between atoms: _165  and  _166
REMARK   65  A    between atoms: _165  and  _168
REMARK   66  A    between atoms: _168  and  _169
REMARK   67  A    between atoms: _172  and  _174
REMARK   68  A    between atoms: _174  and  _175
REMARK   69  A    between atoms: _178  and  _180
REMARK   70  A    between atoms: _180  and  _181
REMARK   71  A    between atoms: _180  and  _183
REMARK   72  A    between atoms: _183  and  _184
REMARK   73  A    between atoms: _187  and  _189
REMARK   74  A    between atoms: _189  and  _190
REMARK   75  A    between atoms: _189  and  _192
REMARK   76  A    between atoms: _195  and  _197
REMARK   77  A    between atoms: _197  and  _198
REMARK   78  A    between atoms: _201  and  _202
REMARK   79  A    between atoms: _207  and  _209
REMARK   80  A    between atoms: _209  and  _210
REMARK   81  A    between atoms: _209  and  _212
REMARK   82  A    between atoms: _212  and  _213
REMARK   83  A    between atoms: _216  and  _218
REMARK   84  A    between atoms: _218  and  _219
REMARK   85  A    between atoms: _218  and  _221
REMARK   86  A    between atoms: _221  and  _222
REMARK   87  A    between atoms: _222  and  _326
REMARK   88  A    between atoms: _223  and  _225
REMARK   89  A    between atoms: _225  and  _226
REMARK   90  A    between atoms: _225  and  _228
REMARK   91  A    between atoms: _228  and  _229
REMARK   92  A    between atoms: _231  and  _233
REMARK   93  A    between atoms: _233  and  _234
REMARK   94  A    between atoms: _233  and  _236
REMARK   95  A    between atoms: _236  and  _237
REMARK   96  A    between atoms: _240  and  _242
REMARK   97  A    between atoms: _242  and  _243
REMARK   98  A    between atoms: _242  and  _245
REMARK   99  A    between atoms: _245  and  _246
REMARK  100  A    between atoms: _253  and  _254
REMARK  101  A    between atoms: _259  and  _261
REMARK  102  A    between atoms: _261  and  _262
REMARK  103  A    between atoms: _265  and  _267
REMARK  104  A    between atoms: _267  and  _268
REMARK  105  A    between atoms: _267  and  _270
REMARK  106  A    between atoms: _273  and  _275
REMARK  107  A    between atoms: _275  and  _276
REMARK  108  A    between atoms: _275  and  _278
REMARK  109  A    between atoms: _278  and  _279
REMARK  110  A    between atoms: _281  and  _283
REMARK  111  A    between atoms: _283  and  _284
REMARK  112  A    between atoms: _287  and  _289
REMARK  113  A    between atoms: _289  and  _290
REMARK  114  A    between atoms: _292  and  _294
REMARK  115  A    between atoms: _294  and  _295
REMARK  116  A    between atoms: _294  and  _297
REMARK  117  A    between atoms: _297  and  _298
REMARK  118  A    between atoms: _301  and  _303
REMARK  119  A    between atoms: _303  and  _304
REMARK  120  A    between atoms: _303  and  _306
REMARK  121  A    between atoms: _306  and  _307
REMARK  122  A    between atoms: _312  and  _313
REMARK  123  A    between atoms: _315  and  _317
REMARK  124  A    between atoms: _317  and  _318
REMARK  125  A    between atoms: _320  and  _322
REMARK  126  A    between atoms: _322  and  _323
REMARK  127  A    between atoms: _322  and  _325
REMARK  128  A    between atoms: _325  and  _326
REMARK  129  A    between atoms: _327  and  _329
REMARK  130  A    between atoms: _329  and  _330
REMARK  131  A    between atoms: _329  and  _332
REMARK  132  A    between atoms: _332  and  _333
REMARK  133  A    between atoms: _336  and  _338
REMARK  134  A    between atoms: _338  and  _339
REMARK  135  A    between atoms: _338  and  _341
REMARK  136  A    between atoms: _344  and  _346
REMARK  137  A    between atoms: _346  and  _347
REMARK  138  A    between atoms: _346  and  _349
REMARK  139  A    between atoms: _349  and  _350
REMARK  140  A    between atoms: _353  and  _355
REMARK  141  A    between atoms: _355  and  _356
REMARK  142  A    between atoms: _355  and  _358
REMARK  143  A    between atoms: _361  and  _363
REMARK  144  A    between atoms: _363  and  _364
REMARK  145  A    between atoms: _363  and  _366
REMARK  146  A    between atoms: _366  and  _367
REMARK  147  A    between atoms: _370  and  _372
REMARK  148  A    between atoms: _372  and  _373
REMARK  149  A    between atoms: _372  and  _375
REMARK  150  A    between atoms: _375  and  _376
REMARK  151  A    between atoms: _381  and  _382
REMARK  152  A    between atoms: _384  and  _386
REMARK  153  A    between atoms: _386  and  _387
REMARK  154  A    between atoms: _386  and  _389
REMARK  155  A    between atoms: _389  and  _390
REMARK  156  A    between atoms: _393  and  _395
REMARK  157  A    between atoms: _395  and  _396
REMARK  158  A    between atoms: _395  and  _398
REMARK  159  A    between atoms: _398  and  _399
REMARK                            x       y       z     vdW  Elec       q    Type
REMARK                         _______ _______ _______ _____ _____    ______ ____
ROOT
ATOM      1  O   HOH     1      20.241  75.086 -14.009  0.00  0.00    +0.000 OA
ENDROOT
TORSDOF 0
REMARK  Name = ../refined-set-2016/2bfr/2bfr_pocket.pdb
REMARK  159 active torsions:
REMARK  status: ('A' for Active; 'I' for Inactive)
REMARK    1  A    between atoms: _1  and  _3
REMARK    2  A    between atoms: _3  and  _4
REMARK    3  A    between atoms: _7  and  _9
REMARK    4  A    between atoms: _9  and  _10
REMARK    5  A    between atoms: _9  and  _12
REMARK    6  A    between atoms: _12  and  _13
REMARK    7  A    between atoms: _13  and  _14
REMARK    8  A    between atoms: _19  and  _21
REMARK    9  A    between atoms: _21  and  _22
REMARK   10  A    between atoms: _24  and  _26
REMARK   11  A    between atoms: _26  and  _27
REMARK   12  A    between atoms: _26  and  _29
REMARK   13  A    between atoms: _29  and  _30
REMARK   14  A    between atoms: _33  and  _35
REMARK   15  A    between atoms: _35  and  _36
REMARK   16  A    between atoms: _35  and  _38
REMARK   17  A    between atoms: _38  and  _39
REMARK   18  A    between atoms: _42  and  _44
REMARK   19  A    between atoms: _44  and  _45
REMARK   20  A    between atoms: _44  and  _47
REMARK   21  A    between atoms: _47  and  _48
REMARK   22  A    between atoms: _51  and  _53
REMARK   23  A    between atoms: _53  and  _54
REMARK   24  A    between atoms: _53  and  _56
REMARK   25  A    between atoms: _56  and  _57
REMARK   26  A    between atoms: _57  and  _58
REMARK   27  A    between atoms: _63  and  _65
REMARK   28  A    between atoms: _65  and  _66
REMARK   29  A    between atoms: _65  and  _68
REMARK   30  A    between atoms: _68  and  _69
REMARK   31  A    between atoms: _74  and  _75
REMARK   32  A    between atoms: _77  and  _79
REMARK   33  A    between atoms: _79  and  _80
REMARK   34  A    between atoms: _79  and  _82
REMARK   35  A    between atoms: _85  and  _87
REMARK   36  A    between atoms: _87  and  _88
REMARK   37  A    between atoms: _87  and  _90
REMARK   38  A    between atoms: _90  and  _91
REMARK   39  A    between atoms: _96  and  _98
REMARK   40  A    between atoms: _98  and  _99
REMARK   41  A    between atoms: _102  and  _104
REMARK   42  A    between atoms: _104  and  _105
REMARK   43  A    between atoms: _108  and  _110
REMARK   44  A    between atoms: _110  and  _111
REMARK   45  A    between atoms: _110  and  _113
REMARK   46  A    between atoms: _113  and  _114
REMARK   47  A    between atoms: _119  and  _121
REMARK   48  A    between atoms: _121  and  _122
REMARK   49  A    between atoms: _124  and  _126
REMARK   50  A    between atoms: _126  and  _127
REMARK   51  A    between atoms: _129  and  _131
REMARK   52  A    between atoms: _131  and  _132
REMARK   53  A    between atoms: _131  and  _134
REMARK   54  A    between atoms: _137  and  _139
REMARK   55  A    between atoms: _139  and  _140
REMARK   56  A    between atoms: _143  and  _145
REMARK   57  A    between atoms: _145  and  _146
REMARK   58  A    between atoms: _145  and  _148
REMARK   59  A    between atoms: _148  and  _149
REMARK   60  A    between atoms: _154  and  _155
REMARK   61  A    between atoms: _157  and  _159
REMARK   62  A    between atoms: _159  and  _160
REMARK   63  A    between atoms: _163  and  _165
REMARK   64  A    between atoms: _165  and  _166
REMARK   65  A    between atoms: _165  and  _168
REMARK   66  A    between atoms: _168  and  _169
REMARK   67  A    between atoms: _172  and  _174
REMARK   68  A    between atoms: _174  and  _175
REMARK   69  A    between atoms: _178  and  _180
REMARK   70  A    between atoms: _180  and  _181
REMARK   71  A    between atoms: _180  and  _183
REMARK   72  A    between atoms: _183  and  _184
REMARK   73  A    between atoms: _187  and  _189
REMARK   74  A    between atoms: _189  and  _190
REMARK   75  A    between atoms: _189  and  _192
REMARK   76  A    between atoms: _195  and  _197
REMARK   77  A    between atoms: _197  and  _198
REMARK   78  A    between atoms: _201  and  _202
REMARK   79  A    between atoms: _207  and  _209
REMARK   80  A    between atoms: _209  and  _210
REMARK   81  A    between atoms: _209  and  _212
REMARK   82  A    between atoms: _212  and  _213
REMARK   83  A    between atoms: _216  and  _218
REMARK   84  A    between atoms: _218  and  _219
REMARK   85  A    between atoms: _218  and  _221
REMARK   86  A    between atoms: _221  and  _222
REMARK   87  A    between atoms: _222  and  _326
REMARK   88  A    between atoms: _223  and  _225
REMARK   89  A    between atoms: _225  and  _226
REMARK   90  A    between atoms: _225  and  _228
REMARK   91  A    between atoms: _228  and  _229
REMARK   92  A    between atoms: _231  and  _233
REMARK   93  A    between atoms: _233  and  _234
REMARK   94  A    between atoms: _233  and  _236
REMARK   95  A    between atoms: _236  and  _237
REMARK   96  A    between atoms: _240  and  _242
REMARK   97  A    between atoms: _242  and  _243
REMARK   98  A    between atoms: _242  and  _245
REMARK   99  A    between atoms: _245  and  _246
REMARK  100  A    between atoms: _253  and  _254
REMARK  101  A    between atoms: _259  and  _261
REMARK  102  A    between atoms: _261  and  _262
REMARK  103  A    between atoms: _265  and  _267
REMARK  104  A    between atoms: _267  and  _268
REMARK  105  A    between atoms: _267  and  _270
REMARK  106  A    between atoms: _273  and  _275
REMARK  107  A    between atoms: _275  and  _276
REMARK  108  A    between atoms: _275  and  _278
REMARK  109  A    between atoms: _278  and  _279
REMARK  110  A    between atoms: _281  and  _283
REMARK  111  A    between atoms: _283  and  _284
REMARK  112  A    between atoms: _287  and  _289
REMARK  113  A    between atoms: _289  and  _290
REMARK  114  A    between atoms: _292  and  _294
REMARK  115  A    between atoms: _294  and  _295
REMARK  116  A    between atoms: _294  and  _297
REMARK  117  A    between atoms: _297  and  _298
REMARK  118  A    between atoms: _301  and  _303
REMARK  119  A    between atoms: _303  and  _304
REMARK  120  A    between atoms: _303  and  _306
REMARK  121  A    between atoms: _306  and  _307
REMARK  122  A    between atoms: _312  and  _313
REMARK  123  A    between atoms: _315  and  _317
REMARK  124  A    between atoms: _317  and  _318
REMARK  125  A    between atoms: _320  and  _322
REMARK  126  A    between atoms: _322  and  _323
REMARK  127  A    between atoms: _322  and  _325
REMARK  128  A    between atoms: _325  and  _326
REMARK  129  A    between atoms: _327  and  _329
REMARK  130  A    between atoms: _329  and  _330
REMARK  131  A    between atoms: _329  and  _332
REMARK  132  A    between atoms: _332  and  _333
REMARK  133  A    between atoms: _336  and  _338
REMARK  134  A    between atoms: _338  and  _339
REMARK  135  A    between atoms: _338  and  _341
REMARK  136  A    between atoms: _344  and  _346
REMARK  137  A    between atoms: _346  and  _347
REMARK  138  A    between atoms: _346  and  _349
REMARK  139  A    between atoms: _349  and  _350
REMARK  140  A    between atoms: _353  and  _355
REMARK  141  A    between atoms: _355  and  _356
REMARK  142  A    between atoms: _355  and  _358
REMARK  143  A    between atoms: _361  and  _363
REMARK  144  A    between atoms: _363  and  _364
REMARK  145  A    between atoms: _363  and  _366
REMARK  146  A    between atoms: _366  and  _367
REMARK  147  A    between atoms: _370  and  _372
REMARK  148  A    between atoms: _372  and  _373
REMARK  149  A    between atoms: _372  and  _375
REMARK  150  A    between atoms: _375  and  _376
REMARK  151  A    between atoms: _381  and  _382
REMARK  152  A    between atoms: _384  and  _386
REMARK  153  A    between atoms: _386  and  _387
REMARK  154  A    between atoms: _386  and  _389
REMARK  155  A    between atoms: _389  and  _390
REMARK  156  A    between atoms: _393  and  _395
REMARK  157  A    between atoms: _395  and  _396
REMARK  158  A    between atoms: _395  and  _398
REMARK  159  A    between atoms: _398  and  _399
REMARK                            x       y       z     vdW  Elec       q    Type
REMARK                         _______ _______ _______ _____ _____    ______ ____
ROOT
ATOM      1  O   HOH     1       5.486  83.361  -7.443  0.00  0.00    +0.000 OA
ENDROOT
TORSDOF 0
REMARK  Name = ../refined-set-2016/2bfr/2bfr_pocket.pdb
REMARK  159 active torsions:
REMARK  status: ('A' for Active; 'I' for Inactive)
REMARK    1  A    between atoms: _1  and  _3
REMARK    2  A    between atoms: _3  and  _4
REMARK    3  A    between atoms: _7  and  _9
REMARK    4  A    between atoms: _9  and  _10
REMARK    5  A    between atoms: _9  and  _12
REMARK    6  A    between atoms: _12  and  _13
REMARK    7  A    between atoms: _13  and  _14
REMARK    8  A    between atoms: _19  and  _21
REMARK    9  A    between atoms: _21  and  _22
REMARK   10  A    between atoms: _24  and  _26
REMARK   11  A    between atoms: _26  and  _27
REMARK   12  A    between atoms: _26  and  _29
REMARK   13  A    between atoms: _29  and  _30
REMARK   14  A    between atoms: _33  and  _35
REMARK   15  A    between atoms: _35  and  _36
REMARK   16  A    between atoms: _35  and  _38
REMARK   17  A    between atoms: _38  and  _39
REMARK   18  A    between atoms: _42  and  _44
REMARK   19  A    between atoms: _44  and  _45
REMARK   20  A    between atoms: _44  and  _47
REMARK   21  A    between atoms: _47  and  _48
REMARK   22  A    between atoms: _51  and  _53
REMARK   23  A    between atoms: _53  and  _54
REMARK   24  A    between atoms: _53  and  _56
REMARK   25  A    between atoms: _56  and  _57
REMARK   26  A    between atoms: _57  and  _58
REMARK   27  A    between atoms: _63  and  _65
REMARK   28  A    between atoms: _65  and  _66
REMARK   29  A    between atoms: _65  and  _68
REMARK   30  A    between atoms: _68  and  _69
REMARK   31  A    between atoms: _74  and  _75
REMARK   32  A    between atoms: _77  and  _79
REMARK   33  A    between atoms: _79  and  _80
REMARK   34  A    between atoms: _79  and  _82
REMARK   35  A    between atoms: _85  and  _87
REMARK   36  A    between atoms: _87  and  _88
REMARK   37  A    between atoms: _87  and  _90
REMARK   38  A    between atoms: _90  and  _91
REMARK   39  A    between atoms: _96  and  _98
REMARK   40  A    between atoms: _98  and  _99
REMARK   41  A    between atoms: _102  and  _104
REMARK   42  A    between atoms: _104  and  _105
REMARK   43  A    between atoms: _108  and  _110
REMARK   44  A    between atoms: _110  and  _111
REMARK   45  A    between atoms: _110  and  _113
REMARK   46  A    between atoms: _113  and  _114
REMARK   47  A    between atoms: _119  and  _121
REMARK   48  A    between atoms: _121  and  _122
REMARK   49  A    between atoms: _124  and  _126
REMARK   50  A    between atoms: _126  and  _127
REMARK   51  A    between atoms: _129  and  _131
REMARK   52  A    between atoms: _131  and  _132
REMARK   53  A    between atoms: _131  and  _134
REMARK   54  A    between atoms: _137  and  _139
REMARK   55  A    between atoms: _139  and  _140
REMARK   56  A    between atoms: _143  and  _145
REMARK   57  A    between atoms: _145  and  _146
REMARK   58  A    between atoms: _145  and  _148
REMARK   59  A    between atoms: _148  and  _149
REMARK   60  A    between atoms: _154  and  _155
REMARK   61  A    between atoms: _157  and  _159
REMARK   62  A    between atoms: _159  and  _160
REMARK   63  A    between atoms: _163  and  _165
REMARK   64  A    between atoms: _165  and  _166
REMARK   65  A    between atoms: _165  and  _168
REMARK   66  A    between atoms: _168  and  _169
REMARK   67  A    between atoms: _172  and  _174
REMARK   68  A    between atoms: _174  and  _175
REMARK   69  A    between atoms: _178  and  _180
REMARK   70  A    between atoms: _180  and  _181
REMARK   71  A    between atoms: _180  and  _183
REMARK   72  A    between atoms: _183  and  _184
REMARK   73  A    between atoms: _187  and  _189
REMARK   74  A    between atoms: _189  and  _190
REMARK   75  A    between atoms: _189  and  _192
REMARK   76  A    between atoms: _195  and  _197
REMARK   77  A    between atoms: _197  and  _198
REMARK   78  A    between atoms: _201  and  _202
REMARK   79  A    between atoms: _207  and  _209
REMARK   80  A    between atoms: _209  and  _210
REMARK   81  A    between atoms: _209  and  _212
REMARK   82  A    between atoms: _212  and  _213
REMARK   83  A    between atoms: _216  and  _218
REMARK   84  A    between atoms: _218  and  _219
REMARK   85  A    between atoms: _218  and  _221
REMARK   86  A    between atoms: _221  and  _222
REMARK   87  A    between atoms: _222  and  _326
REMARK   88  A    between atoms: _223  and  _225
REMARK   89  A    between atoms: _225  and  _226
REMARK   90  A    between atoms: _225  and  _228
REMARK   91  A    between atoms: _228  and  _229
REMARK   92  A    between atoms: _231  and  _233
REMARK   93  A    between atoms: _233  and  _234
REMARK   94  A    between atoms: _233  and  _236
REMARK   95  A    between atoms: _236  and  _237
REMARK   96  A    between atoms: _240  and  _242
REMARK   97  A    between atoms: _242  and  _243
REMARK   98  A    between atoms: _242  and  _245
REMARK   99  A    between atoms: _245  and  _246
REMARK  100  A    between atoms: _253  and  _254
REMARK  101  A    between atoms: _259  and  _261
REMARK  102  A    between atoms: _261  and  _262
REMARK  103  A    between atoms: _265  and  _267
REMARK  104  A    between atoms: _267  and  _268
REMARK  105  A    between atoms: _267  and  _270
REMARK  106  A    between atoms: _273  and  _275
REMARK  107  A    between atoms: _275  and  _276
REMARK  108  A    between atoms: _275  and  _278
REMARK  109  A    between atoms: _278  and  _279
REMARK  110  A    between atoms: _281  and  _283
REMARK  111  A    between atoms: _283  and  _284
REMARK  112  A    between atoms: _287  and  _289
REMARK  113  A    between atoms: _289  and  _290
REMARK  114  A    between atoms: _292  and  _294
REMARK  115  A    between atoms: _294  and  _295
REMARK  116  A    between atoms: _294  and  _297
REMARK  117  A    between atoms: _297  and  _298
REMARK  118  A    between atoms: _301  and  _303
REMARK  119  A    between atoms: _303  and  _304
REMARK  120  A    between atoms: _303  and  _306
REMARK  121  A    between atoms: _306  and  _307
REMARK  122  A    between atoms: _312  and  _313
REMARK  123  A    between atoms: _315  and  _317
REMARK  124  A    between atoms: _317  and  _318
REMARK  125  A    between atoms: _320  and  _322
REMARK  126  A    between atoms: _322  and  _323
REMARK  127  A    between atoms: _322  and  _325
REMARK  128  A    between atoms: _325  and  _326
REMARK  129  A    between atoms: _327  and  _329
REMARK  130  A    between atoms: _329  and  _330
REMARK  131  A    between atoms: _329  and  _332
REMARK  132  A    between atoms: _332  and  _333
REMARK  133  A    between atoms: _336  and  _338
REMARK  134  A    between atoms: _338  and  _339
REMARK  135  A    between atoms: _338  and  _341
REMARK  136  A    between atoms: _344  and  _346
REMARK  137  A    between atoms: _346  and  _347
REMARK  138  A    between atoms: _346  and  _349
REMARK  139  A    between atoms: _349  and  _350
REMARK  140  A    between atoms: _353  and  _355
REMARK  141  A    between atoms: _355  and  _356
REMARK  142  A    between atoms: _355  and  _358
REMARK  143  A    between atoms: _361  and  _363
REMARK  144  A    between atoms: _363  and  _364
REMARK  145  A    between atoms: _363  and  _366
REMARK  146  A    between atoms: _366  and  _367
REMARK  147  A    between atoms: _370  and  _372
REMARK  148  A    between atoms: _372  and  _373
REMARK  149  A    between atoms: _372  and  _375
REMARK  150  A    between atoms: _375  and  _376
REMARK  151  A    between atoms: _381  and  _382
REMARK  152  A    between atoms: _384  and  _386
REMARK  153  A    between atoms: _386  and  _387
REMARK  154  A    between atoms: _386  and  _389
REMARK  155  A    between atoms: _389  and  _390
REMARK  156  A    between atoms: _393  and  _395
REMARK  157  A    between atoms: _395  and  _396
REMARK  158  A    between atoms: _395  and  _398
REMARK  159  A    between atoms: _398  and  _399
REMARK                            x       y       z     vdW  Elec       q    Type
REMARK                         _______ _______ _______ _____ _____    ______ ____
ROOT
ATOM      1  O   HOH     1      19.133  76.324  -9.043  0.00  0.00    +0.000 OA
ENDROOT
TORSDOF 0
REMARK  Name = ../refined-set-2016/2bfr/2bfr_pocket.pdb
REMARK  159 active torsions:
REMARK  status: ('A' for Active; 'I' for Inactive)
REMARK    1  A    between atoms: _1  and  _3
REMARK    2  A    between atoms: _3  and  _4
REMARK    3  A    between atoms: _7  and  _9
REMARK    4  A    between atoms: _9  and  _10
REMARK    5  A    between atoms: _9  and  _12
REMARK    6  A    between atoms: _12  and  _13
REMARK    7  A    between atoms: _13  and  _14
REMARK    8  A    between atoms: _19  and  _21
REMARK    9  A    between atoms: _21  and  _22
REMARK   10  A    between atoms: _24  and  _26
REMARK   11  A    between atoms: _26  and  _27
REMARK   12  A    between atoms: _26  and  _29
REMARK   13  A    between atoms: _29  and  _30
REMARK   14  A    between atoms: _33  and  _35
REMARK   15  A    between atoms: _35  and  _36
REMARK   16  A    between atoms: _35  and  _38
REMARK   17  A    between atoms: _38  and  _39
REMARK   18  A    between atoms: _42  and  _44
REMARK   19  A    between atoms: _44  and  _45
REMARK   20  A    between atoms: _44  and  _47
REMARK   21  A    between atoms: _47  and  _48
REMARK   22  A    between atoms: _51  and  _53
REMARK   23  A    between atoms: _53  and  _54
REMARK   24  A    between atoms: _53  and  _56
REMARK   25  A    between atoms: _56  and  _57
REMARK   26  A    between atoms: _57  and  _58
REMARK   27  A    between atoms: _63  and  _65
REMARK   28  A    between atoms: _65  and  _66
REMARK   29  A    between atoms: _65  and  _68
REMARK   30  A    between atoms: _68  and  _69
REMARK   31  A    between atoms: _74  and  _75
REMARK   32  A    between atoms: _77  and  _79
REMARK   33  A    between atoms: _79  and  _80
REMARK   34  A    between atoms: _79  and  _82
REMARK   35  A    between atoms: _85  and  _87
REMARK   36  A    between atoms: _87  and  _88
REMARK   37  A    between atoms: _87  and  _90
REMARK   38  A    between atoms: _90  and  _91
REMARK   39  A    between atoms: _96  and  _98
REMARK   40  A    between atoms: _98  and  _99
REMARK   41  A    between atoms: _102  and  _104
REMARK   42  A    between atoms: _104  and  _105
REMARK   43  A    between atoms: _108  and  _110
REMARK   44  A    between atoms: _110  and  _111
REMARK   45  A    between atoms: _110  and  _113
REMARK   46  A    between atoms: _113  and  _114
REMARK   47  A    between atoms: _119  and  _121
REMARK   48  A    between atoms: _121  and  _122
REMARK   49  A    between atoms: _124  and  _126
REMARK   50  A    between atoms: _126  and  _127
REMARK   51  A    between atoms: _129  and  _131
REMARK   52  A    between atoms: _131  and  _132
REMARK   53  A    between atoms: _131  and  _134
REMARK   54  A    between atoms: _137  and  _139
REMARK   55  A    between atoms: _139  and  _140
REMARK   56  A    between atoms: _143  and  _145
REMARK   57  A    between atoms: _145  and  _146
REMARK   58  A    between atoms: _145  and  _148
REMARK   59  A    between atoms: _148  and  _149
REMARK   60  A    between atoms: _154  and  _155
REMARK   61  A    between atoms: _157  and  _159
REMARK   62  A    between atoms: _159  and  _160
REMARK   63  A    between atoms: _163  and  _165
REMARK   64  A    between atoms: _165  and  _166
REMARK   65  A    between atoms: _165  and  _168
REMARK   66  A    between atoms: _168  and  _169
REMARK   67  A    between atoms: _172  and  _174
REMARK   68  A    between atoms: _174  and  _175
REMARK   69  A    between atoms: _178  and  _180
REMARK   70  A    between atoms: _180  and  _181
REMARK   71  A    between atoms: _180  and  _183
REMARK   72  A    between atoms: _183  and  _184
REMARK   73  A    between atoms: _187  and  _189
REMARK   74  A    between atoms: _189  and  _190
REMARK   75  A    between atoms: _189  and  _192
REMARK   76  A    between atoms: _195  and  _197
REMARK   77  A    between atoms: _197  and  _198
REMARK   78  A    between atoms: _201  and  _202
REMARK   79  A    between atoms: _207  and  _209
REMARK   80  A    between atoms: _209  and  _210
REMARK   81  A    between atoms: _209  and  _212
REMARK   82  A    between atoms: _212  and  _213
REMARK   83  A    between atoms: _216  and  _218
REMARK   84  A    between atoms: _218  and  _219
REMARK   85  A    between atoms: _218  and  _221
REMARK   86  A    between atoms: _221  and  _222
REMARK   87  A    between atoms: _222  and  _326
REMARK   88  A    between atoms: _223  and  _225
REMARK   89  A    between atoms: _225  and  _226
REMARK   90  A    between atoms: _225  and  _228
REMARK   91  A    between atoms: _228  and  _229
REMARK   92  A    between atoms: _231  and  _233
REMARK   93  A    between atoms: _233  and  _234
REMARK   94  A    between atoms: _233  and  _236
REMARK   95  A    between atoms: _236  and  _237
REMARK   96  A    between atoms: _240  and  _242
REMARK   97  A    between atoms: _242  and  _243
REMARK   98  A    between atoms: _242  and  _245
REMARK   99  A    between atoms: _245  and  _246
REMARK  100  A    between atoms: _253  and  _254
REMARK  101  A    between atoms: _259  and  _261
REMARK  102  A    between atoms: _261  and  _262
REMARK  103  A    between atoms: _265  and  _267
REMARK  104  A    between atoms: _267  and  _268
REMARK  105  A    between atoms: _267  and  _270
REMARK  106  A    between atoms: _273  and  _275
REMARK  107  A    between atoms: _275  and  _276
REMARK  108  A    between atoms: _275  and  _278
REMARK  109  A    between atoms: _278  and  _279
REMARK  110  A    between atoms: _281  and  _283
REMARK  111  A    between atoms: _283  and  _284
REMARK  112  A    between atoms: _287  and  _289
REMARK  113  A    between atoms: _289  and  _290
REMARK  114  A    between atoms: _292  and  _294
REMARK  115  A    between atoms: _294  and  _295
REMARK  116  A    between atoms: _294  and  _297
REMARK  117  A    between atoms: _297  and  _298
REMARK  118  A    between atoms: _301  and  _303
REMARK  119  A    between atoms: _303  and  _304
REMARK  120  A    between atoms: _303  and  _306
REMARK  121  A    between atoms: _306  and  _307
REMARK  122  A    between atoms: _312  and  _313
REMARK  123  A    between atoms: _315  and  _317
REMARK  124  A    between atoms: _317  and  _318
REMARK  125  A    between atoms: _320  and  _322
REMARK  126  A    between atoms: _322  and  _323
REMARK  127  A    between atoms: _322  and  _325
REMARK  128  A    between atoms: _325  and  _326
REMARK  129  A    between atoms: _327  and  _329
REMARK  130  A    between atoms: _329  and  _330
REMARK  131  A    between atoms: _329  and  _332
REMARK  132  A    between atoms: _332  and  _333
REMARK  133  A    between atoms: _336  and  _338
REMARK  134  A    between atoms: _338  and  _339
REMARK  135  A    between atoms: _338  and  _341
REMARK  136  A    between atoms: _344  and  _346
REMARK  137  A    between atoms: _346  and  _347
REMARK  138  A    between atoms: _346  and  _349
REMARK  139  A    between atoms: _349  and  _350
REMARK  140  A    between atoms: _353  and  _355
REMARK  141  A    between atoms: _355  and  _356
REMARK  142  A    between atoms: _355  and  _358
REMARK  143  A    between atoms: _361  and  _363
REMARK  144  A    between atoms: _363  and  _364
REMARK  145  A    between atoms: _363  and  _366
REMARK  146  A    between atoms: _366  and  _367
REMARK  147  A    between atoms: _370  and  _372
REMARK  148  A    between atoms: _372  and  _373
REMARK  149  A    between atoms: _372  and  _375
REMARK  150  A    between atoms: _375  and  _376
REMARK  151  A    between atoms: _381  and  _382
REMARK  152  A    between atoms: _384  and  _386
REMARK  153  A    between atoms: _386  and  _387
REMARK  154  A    between atoms: _386  and  _389
REMARK  155  A    between atoms: _389  and  _390
REMARK  156  A    between atoms: _393  and  _395
REMARK  157  A    between atoms: _395  and  _396
REMARK  158  A    between atoms: _395  and  _398
REMARK  159  A    between atoms: _398  and  _399
REMARK                            x       y       z     vdW  Elec       q    Type
REMARK                         _______ _______ _______ _____ _____    ______ ____
ROOT
ATOM      1  O   HOH     1      16.621  82.759  -5.434  0.00  0.00    +0.000 OA
ENDROOT
TORSDOF 0
