REMARK  Name = ../refined-set-2016/4q8y/4q8y_pocket.pdb
REMARK  144 active torsions:
REMARK  status: ('A' for Active; 'I' for Inactive)
REMARK    1  A    between atoms: _1  and  _3
REMARK    2  A    between atoms: _3  and  _4
REMARK    3  A    between atoms: _3  and  _6
REMARK    4  A    between atoms: _6  and  _7
REMARK    5  A    between atoms: _17  and  _19
REMARK    6  A    between atoms: _19  and  _20
REMARK    7  A    between atoms: _19  and  _22
REMARK    8  A    between atoms: _22  and  _23
REMARK    9  A    between atoms: _28  and  _29
REMARK   10  A    between atoms: _31  and  _33
REMARK   11  A    between atoms: _33  and  _34
REMARK   12  A    between atoms: _33  and  _36
REMARK   13  A    between atoms: _36  and  _37
REMARK   14  A    between atoms: _39  and  _41
REMARK   15  A    between atoms: _41  and  _42
REMARK   16  A    between atoms: _41  and  _44
REMARK   17  A    between atoms: _44  and  _45
REMARK   18  A    between atoms: _50  and  _52
REMARK   19  A    between atoms: _52  and  _53
REMARK   20  A    between atoms: _52  and  _55
REMARK   21  A    between atoms: _55  and  _56
REMARK   22  A    between atoms: _61  and  _63
REMARK   23  A    between atoms: _63  and  _64
REMARK   24  A    between atoms: _67  and  _69
REMARK   25  A    between atoms: _69  and  _70
REMARK   26  A    between atoms: _69  and  _72
REMARK   27  A    between atoms: _72  and  _73
REMARK   28  A    between atoms: _78  and  _80
REMARK   29  A    between atoms: _80  and  _81
REMARK   30  A    between atoms: _80  and  _83
REMARK   31  A    between atoms: _83  and  _84
REMARK   32  A    between atoms: _87  and  _89
REMARK   33  A    between atoms: _89  and  _90
REMARK   34  A    between atoms: _89  and  _92
REMARK   35  A    between atoms: _92  and  _93
REMARK   36  A    between atoms: _93  and  _94
REMARK   37  A    between atoms: _99  and  _101
REMARK   38  A    between atoms: _112  and  _115
REMARK   39  A    between atoms: _115  and  _116
REMARK   40  A    between atoms: _124  and  _125
REMARK   41  A    between atoms: _133  and  _135
REMARK   42  A    between atoms: _135  and  _136
REMARK   43  A    between atoms: _135  and  _138
REMARK   44  A    between atoms: _138  and  _139
REMARK   45  A    between atoms: _139  and  _140
REMARK   46  A    between atoms: _143  and  _145
REMARK   47  A    between atoms: _145  and  _146
REMARK   48  A    between atoms: _145  and  _148
REMARK   49  A    between atoms: _148  and  _149
REMARK   50  A    between atoms: _154  and  _156
REMARK   51  A    between atoms: _156  and  _157
REMARK   52  A    between atoms: _156  and  _159
REMARK   53  A    between atoms: _159  and  _160
REMARK   54  A    between atoms: _160  and  _161
REMARK   55  A    between atoms: _164  and  _166
REMARK   56  A    between atoms: _166  and  _167
REMARK   57  A    between atoms: _166  and  _169
REMARK   58  A    between atoms: _169  and  _170
REMARK   59  A    between atoms: _173  and  _175
REMARK   60  A    between atoms: _175  and  _176
REMARK   61  A    between atoms: _175  and  _178
REMARK   62  A    between atoms: _178  and  _179
REMARK   63  A    between atoms: _180  and  ZN_406
REMARK   64  A    between atoms: _184  and  _186
REMARK   65  A    between atoms: _186  and  _187
REMARK   66  A    between atoms: _186  and  _189
REMARK   67  A    between atoms: _189  and  _190
REMARK   68  A    between atoms: _193  and  _195
REMARK   69  A    between atoms: _195  and  _196
REMARK   70  A    between atoms: _195  and  _198
REMARK   71  A    between atoms: _201  and  _203
REMARK   72  A    between atoms: _203  and  _204
REMARK   73  A    between atoms: _203  and  _206
REMARK   74  A    between atoms: _206  and  _207
REMARK   75  A    between atoms: _212  and  _214
REMARK   76  A    between atoms: _214  and  _215
REMARK   77  A    between atoms: _214  and  _217
REMARK   78  A    between atoms: _217  and  _218
REMARK   79  A    between atoms: _228  and  _230
REMARK   80  A    between atoms: _230  and  _231
REMARK   81  A    between atoms: _230  and  _233
REMARK   82  A    between atoms: _233  and  _234
REMARK   83  A    between atoms: _240  and  _242
REMARK   84  A    between atoms: _242  and  _243
REMARK   85  A    between atoms: _242  and  _245
REMARK   86  A    between atoms: _248  and  _250
REMARK   87  A    between atoms: _250  and  _251
REMARK   88  A    between atoms: _250  and  _253
REMARK   89  A    between atoms: _253  and  _254
REMARK   90  A    between atoms: _257  and  _259
REMARK   91  A    between atoms: _259  and  _260
REMARK   92  A    between atoms: _263  and  _265
REMARK   93  A    between atoms: _265  and  _266
REMARK   94  A    between atoms: _265  and  _268
REMARK   95  A    between atoms: _271  and  _273
REMARK   96  A    between atoms: _273  and  _274
REMARK   97  A    between atoms: _273  and  _276
REMARK   98  A    between atoms: _276  and  _277
REMARK   99  A    between atoms: _280  and  _282
REMARK  100  A    between atoms: _282  and  _283
REMARK  101  A    between atoms: _282  and  _285
REMARK  102  A    between atoms: _285  and  _286
REMARK  103  A    between atoms: _288  and  _290
REMARK  104  A    between atoms: _290  and  _291
REMARK  105  A    between atoms: _290  and  _293
REMARK  106  A    between atoms: _293  and  _294
REMARK  107  A    between atoms: _297  and  _299
REMARK  108  A    between atoms: _299  and  _300
REMARK  109  A    between atoms: _299  and  _302
REMARK  110  A    between atoms: _302  and  _303
REMARK  111  A    between atoms: _306  and  _308
REMARK  112  A    between atoms: _308  and  _309
REMARK  113  A    between atoms: _308  and  _311
REMARK  114  A    between atoms: _311  and  _312
REMARK  115  A    between atoms: _316  and  _317
REMARK  116  A    between atoms: _323  and  _324
REMARK  117  A    between atoms: _329  and  _331
REMARK  118  A    between atoms: _331  and  _332
REMARK  119  A    between atoms: _331  and  _334
REMARK  120  A    between atoms: _334  and  _335
REMARK  121  A    between atoms: _338  and  _340
REMARK  122  A    between atoms: _340  and  _341
REMARK  123  A    between atoms: _340  and  _343
REMARK  124  A    between atoms: _343  and  _344
REMARK  125  A    between atoms: _347  and  _349
REMARK  126  A    between atoms: _349  and  _350
REMARK  127  A    between atoms: _349  and  _352
REMARK  128  A    between atoms: _354  and  _356
REMARK  129  A    between atoms: _356  and  _357
REMARK  130  A    between atoms: _356  and  _359
REMARK  131  A    between atoms: _362  and  _364
REMARK  132  A    between atoms: _364  and  _365
REMARK  133  A    between atoms: _364  and  _367
REMARK  134  A    between atoms: _367  and  _368
REMARK  135  A    between atoms: _378  and  _380
REMARK  136  A    between atoms: _380  and  _381
REMARK  137  A    between atoms: _380  and  _383
REMARK  138  A    between atoms: _383  and  _384
REMARK  139  A    between atoms: _389  and  _391
REMARK  140  A    between atoms: _391  and  _392
REMARK  141  A    between atoms: _391  and  _394
REMARK  142  A    between atoms: _394  and  _395
REMARK  143  A    between atoms: _395  and  _396
REMARK  144  A    between atoms: _396  and  _397
REMARK                            x       y       z     vdW  Elec       q    Type
REMARK                         _______ _______ _______ _____ _____    ______ ____
ROOT
ATOM      1  CG  TRP A   1      26.796  -0.269  11.944  0.00  0.00    -0.002 A 
ATOM      2  CD2 TRP A   1      25.436  -0.756  11.941  0.00  0.00    +0.013 A 
ATOM      3  CE3 TRP A   1      24.866  -2.001  12.180  0.00  0.00    +0.001 A 
ATOM      4  CZ3 TRP A   1      23.446  -2.124  12.044  0.00  0.00    +0.000 A 
ATOM      5  CH2 TRP A   1      22.649  -1.030  11.719  0.00  0.00    +0.001 A 
ATOM      6  CZ2 TRP A   1      23.216   0.180  11.397  0.00  0.00    +0.017 A 
ATOM      7  CE2 TRP A   1      24.594   0.313  11.542  0.00  0.00    +0.056 A 
ATOM      8  NE1 TRP A   1      25.397   1.426  11.353  0.00  0.00    -0.352 N 
ATOM      9  HE1 TRP A   1      25.059   2.370  11.076  0.00  0.00    +0.166 HD
ATOM     10  CD1 TRP A   1      26.705   1.092  11.587  0.00  0.00    +0.068 A 
ENDROOT
BRANCH   1  11
ATOM     11  CB  TRP A   1      28.069  -1.064  12.317  0.00  0.00    +0.053 C 
BRANCH  11  12
ATOM     12  CA  TRP A   1      28.731  -1.747  11.109  0.00  0.00    +0.137 C 
BRANCH  12  13
ATOM     13  N   TRP A   1      29.312  -0.753  10.254  0.00  0.00    -0.239 NA
ATOM     14  H   TRP A   1      28.965   0.227  10.240  0.00  0.00    +0.142 HD
ENDBRANCH  12  13
BRANCH  12  15
ATOM     15  C   TRP A   1      27.731  -2.573  10.357  0.00  0.00    +0.224 C 
ATOM     16  O   TRP A   1      27.160  -2.143   9.327  0.00  0.00    -0.287 OA
ENDBRANCH  12  15
ENDBRANCH  11  12
ENDBRANCH   1  11
TORSDOF 4
REMARK  Name = ../refined-set-2016/4q8y/4q8y_pocket.pdb
REMARK  144 active torsions:
REMARK  status: ('A' for Active; 'I' for Inactive)
REMARK    1  A    between atoms: _1  and  _3
REMARK    2  A    between atoms: _3  and  _4
REMARK    3  A    between atoms: _3  and  _6
REMARK    4  A    between atoms: _6  and  _7
REMARK    5  A    between atoms: _17  and  _19
REMARK    6  A    between atoms: _19  and  _20
REMARK    7  A    between atoms: _19  and  _22
REMARK    8  A    between atoms: _22  and  _23
REMARK    9  A    between atoms: _28  and  _29
REMARK   10  A    between atoms: _31  and  _33
REMARK   11  A    between atoms: _33  and  _34
REMARK   12  A    between atoms: _33  and  _36
REMARK   13  A    between atoms: _36  and  _37
REMARK   14  A    between atoms: _39  and  _41
REMARK   15  A    between atoms: _41  and  _42
REMARK   16  A    between atoms: _41  and  _44
REMARK   17  A    between atoms: _44  and  _45
REMARK   18  A    between atoms: _50  and  _52
REMARK   19  A    between atoms: _52  and  _53
REMARK   20  A    between atoms: _52  and  _55
REMARK   21  A    between atoms: _55  and  _56
REMARK   22  A    between atoms: _61  and  _63
REMARK   23  A    between atoms: _63  and  _64
REMARK   24  A    between atoms: _67  and  _69
REMARK   25  A    between atoms: _69  and  _70
REMARK   26  A    between atoms: _69  and  _72
REMARK   27  A    between atoms: _72  and  _73
REMARK   28  A    between atoms: _78  and  _80
REMARK   29  A    between atoms: _80  and  _81
REMARK   30  A    between atoms: _80  and  _83
REMARK   31  A    between atoms: _83  and  _84
REMARK   32  A    between atoms: _87  and  _89
REMARK   33  A    between atoms: _89  and  _90
REMARK   34  A    between atoms: _89  and  _92
REMARK   35  A    between atoms: _92  and  _93
REMARK   36  A    between atoms: _93  and  _94
REMARK   37  A    between atoms: _99  and  _101
REMARK   38  A    between atoms: _112  and  _115
REMARK   39  A    between atoms: _115  and  _116
REMARK   40  A    between atoms: _124  and  _125
REMARK   41  A    between atoms: _133  and  _135
REMARK   42  A    between atoms: _135  and  _136
REMARK   43  A    between atoms: _135  and  _138
REMARK   44  A    between atoms: _138  and  _139
REMARK   45  A    between atoms: _139  and  _140
REMARK   46  A    between atoms: _143  and  _145
REMARK   47  A    between atoms: _145  and  _146
REMARK   48  A    between atoms: _145  and  _148
REMARK   49  A    between atoms: _148  and  _149
REMARK   50  A    between atoms: _154  and  _156
REMARK   51  A    between atoms: _156  and  _157
REMARK   52  A    between atoms: _156  and  _159
REMARK   53  A    between atoms: _159  and  _160
REMARK   54  A    between atoms: _160  and  _161
REMARK   55  A    between atoms: _164  and  _166
REMARK   56  A    between atoms: _166  and  _167
REMARK   57  A    between atoms: _166  and  _169
REMARK   58  A    between atoms: _169  and  _170
REMARK   59  A    between atoms: _173  and  _175
REMARK   60  A    between atoms: _175  and  _176
REMARK   61  A    between atoms: _175  and  _178
REMARK   62  A    between atoms: _178  and  _179
REMARK   63  A    between atoms: _180  and  ZN_406
REMARK   64  A    between atoms: _184  and  _186
REMARK   65  A    between atoms: _186  and  _187
REMARK   66  A    between atoms: _186  and  _189
REMARK   67  A    between atoms: _189  and  _190
REMARK   68  A    between atoms: _193  and  _195
REMARK   69  A    between atoms: _195  and  _196
REMARK   70  A    between atoms: _195  and  _198
REMARK   71  A    between atoms: _201  and  _203
REMARK   72  A    between atoms: _203  and  _204
REMARK   73  A    between atoms: _203  and  _206
REMARK   74  A    between atoms: _206  and  _207
REMARK   75  A    between atoms: _212  and  _214
REMARK   76  A    between atoms: _214  and  _215
REMARK   77  A    between atoms: _214  and  _217
REMARK   78  A    between atoms: _217  and  _218
REMARK   79  A    between atoms: _228  and  _230
REMARK   80  A    between atoms: _230  and  _231
REMARK   81  A    between atoms: _230  and  _233
REMARK   82  A    between atoms: _233  and  _234
REMARK   83  A    between atoms: _240  and  _242
REMARK   84  A    between atoms: _242  and  _243
REMARK   85  A    between atoms: _242  and  _245
REMARK   86  A    between atoms: _248  and  _250
REMARK   87  A    between atoms: _250  and  _251
REMARK   88  A    between atoms: _250  and  _253
REMARK   89  A    between atoms: _253  and  _254
REMARK   90  A    between atoms: _257  and  _259
REMARK   91  A    between atoms: _259  and  _260
REMARK   92  A    between atoms: _263  and  _265
REMARK   93  A    between atoms: _265  and  _266
REMARK   94  A    between atoms: _265  and  _268
REMARK   95  A    between atoms: _271  and  _273
REMARK   96  A    between atoms: _273  and  _274
REMARK   97  A    between atoms: _273  and  _276
REMARK   98  A    between atoms: _276  and  _277
REMARK   99  A    between atoms: _280  and  _282
REMARK  100  A    between atoms: _282  and  _283
REMARK  101  A    between atoms: _282  and  _285
REMARK  102  A    between atoms: _285  and  _286
REMARK  103  A    between atoms: _288  and  _290
REMARK  104  A    between atoms: _290  and  _291
REMARK  105  A    between atoms: _290  and  _293
REMARK  106  A    between atoms: _293  and  _294
REMARK  107  A    between atoms: _297  and  _299
REMARK  108  A    between atoms: _299  and  _300
REMARK  109  A    between atoms: _299  and  _302
REMARK  110  A    between atoms: _302  and  _303
REMARK  111  A    between atoms: _306  and  _308
REMARK  112  A    between atoms: _308  and  _309
REMARK  113  A    between atoms: _308  and  _311
REMARK  114  A    between atoms: _311  and  _312
REMARK  115  A    between atoms: _316  and  _317
REMARK  116  A    between atoms: _323  and  _324
REMARK  117  A    between atoms: _329  and  _331
REMARK  118  A    between atoms: _331  and  _332
REMARK  119  A    between atoms: _331  and  _334
REMARK  120  A    between atoms: _334  and  _335
REMARK  121  A    between atoms: _338  and  _340
REMARK  122  A    between atoms: _340  and  _341
REMARK  123  A    between atoms: _340  and  _343
REMARK  124  A    between atoms: _343  and  _344
REMARK  125  A    between atoms: _347  and  _349
REMARK  126  A    between atoms: _349  and  _350
REMARK  127  A    between atoms: _349  and  _352
REMARK  128  A    between atoms: _354  and  _356
REMARK  129  A    between atoms: _356  and  _357
REMARK  130  A    between atoms: _356  and  _359
REMARK  131  A    between atoms: _362  and  _364
REMARK  132  A    between atoms: _364  and  _365
REMARK  133  A    between atoms: _364  and  _367
REMARK  134  A    between atoms: _367  and  _368
REMARK  135  A    between atoms: _378  and  _380
REMARK  136  A    between atoms: _380  and  _381
REMARK  137  A    between atoms: _380  and  _383
REMARK  138  A    between atoms: _383  and  _384
REMARK  139  A    between atoms: _389  and  _391
REMARK  140  A    between atoms: _391  and  _392
REMARK  141  A    between atoms: _391  and  _394
REMARK  142  A    between atoms: _394  and  _395
REMARK  143  A    between atoms: _395  and  _396
REMARK  144  A    between atoms: _396  and  _397
REMARK                            x       y       z     vdW  Elec       q    Type
REMARK                         _______ _______ _______ _____ _____    ______ ____
ROOT
ATOM      1  CG  TYR A   1      23.079  -7.422  11.855  0.00  0.00    -0.020 A 
ATOM      2  CD2 TYR A   1      22.709  -7.433  13.202  0.00  0.00    -0.001 A 
ATOM      3  CE2 TYR A   1      21.853  -6.425  13.652  0.00  0.00    +0.036 A 
ATOM      4  CZ  TYR A   1      21.413  -5.500  12.785  0.00  0.00    +0.134 A 
ATOM      5  CE1 TYR A   1      21.773  -5.446  11.461  0.00  0.00    +0.036 A 
ATOM      6  CD1 TYR A   1      22.591  -6.437  11.017  0.00  0.00    -0.001 A 
ENDROOT
BRANCH   4   7
ATOM      7  OH  TYR A   1      20.550  -4.484  13.163  0.00  0.00    -0.506 OA
ATOM      8  HH  TYR A   1      20.330  -4.580  14.124  0.00  0.00    +0.292 HD
ENDBRANCH   4   7
BRANCH   1   9
ATOM      9  CB  TYR A   1      24.045  -8.541  11.346  0.00  0.00    +0.051 C 
BRANCH   9  10
ATOM     10  CA  TYR A   1      25.513  -8.102  11.499  0.00  0.00    +0.137 C 
BRANCH  10  11
ATOM     11  N   TYR A   1      25.804  -6.929  10.686  0.00  0.00    -0.239 NA
ATOM     12  H   TYR A   1      25.726  -6.993   9.651  0.00  0.00    +0.142 HD
ENDBRANCH  10  11
BRANCH  10  13
ATOM     13  C   TYR A   1      26.406  -9.325  11.303  0.00  0.00    +0.224 C 
ATOM     14  O   TYR A   1      26.092 -10.447  11.796  0.00  0.00    -0.287 OA
ENDBRANCH  10  13
ENDBRANCH   9  10
ENDBRANCH   1   9
TORSDOF 5
REMARK  Name = ../refined-set-2016/4q8y/4q8y_pocket.pdb
REMARK  144 active torsions:
REMARK  status: ('A' for Active; 'I' for Inactive)
REMARK    1  A    between atoms: _1  and  _3
REMARK    2  A    between atoms: _3  and  _4
REMARK    3  A    between atoms: _3  and  _6
REMARK    4  A    between atoms: _6  and  _7
REMARK    5  A    between atoms: _17  and  _19
REMARK    6  A    between atoms: _19  and  _20
REMARK    7  A    between atoms: _19  and  _22
REMARK    8  A    between atoms: _22  and  _23
REMARK    9  A    between atoms: _28  and  _29
REMARK   10  A    between atoms: _31  and  _33
REMARK   11  A    between atoms: _33  and  _34
REMARK   12  A    between atoms: _33  and  _36
REMARK   13  A    between atoms: _36  and  _37
REMARK   14  A    between atoms: _39  and  _41
REMARK   15  A    between atoms: _41  and  _42
REMARK   16  A    between atoms: _41  and  _44
REMARK   17  A    between atoms: _44  and  _45
REMARK   18  A    between atoms: _50  and  _52
REMARK   19  A    between atoms: _52  and  _53
REMARK   20  A    between atoms: _52  and  _55
REMARK   21  A    between atoms: _55  and  _56
REMARK   22  A    between atoms: _61  and  _63
REMARK   23  A    between atoms: _63  and  _64
REMARK   24  A    between atoms: _67  and  _69
REMARK   25  A    between atoms: _69  and  _70
REMARK   26  A    between atoms: _69  and  _72
REMARK   27  A    between atoms: _72  and  _73
REMARK   28  A    between atoms: _78  and  _80
REMARK   29  A    between atoms: _80  and  _81
REMARK   30  A    between atoms: _80  and  _83
REMARK   31  A    between atoms: _83  and  _84
REMARK   32  A    between atoms: _87  and  _89
REMARK   33  A    between atoms: _89  and  _90
REMARK   34  A    between atoms: _89  and  _92
REMARK   35  A    between atoms: _92  and  _93
REMARK   36  A    between atoms: _93  and  _94
REMARK   37  A    between atoms: _99  and  _101
REMARK   38  A    between atoms: _112  and  _115
REMARK   39  A    between atoms: _115  and  _116
REMARK   40  A    between atoms: _124  and  _125
REMARK   41  A    between atoms: _133  and  _135
REMARK   42  A    between atoms: _135  and  _136
REMARK   43  A    between atoms: _135  and  _138
REMARK   44  A    between atoms: _138  and  _139
REMARK   45  A    between atoms: _139  and  _140
REMARK   46  A    between atoms: _143  and  _145
REMARK   47  A    between atoms: _145  and  _146
REMARK   48  A    between atoms: _145  and  _148
REMARK   49  A    between atoms: _148  and  _149
REMARK   50  A    between atoms: _154  and  _156
REMARK   51  A    between atoms: _156  and  _157
REMARK   52  A    between atoms: _156  and  _159
REMARK   53  A    between atoms: _159  and  _160
REMARK   54  A    between atoms: _160  and  _161
REMARK   55  A    between atoms: _164  and  _166
REMARK   56  A    between atoms: _166  and  _167
REMARK   57  A    between atoms: _166  and  _169
REMARK   58  A    between atoms: _169  and  _170
REMARK   59  A    between atoms: _173  and  _175
REMARK   60  A    between atoms: _175  and  _176
REMARK   61  A    between atoms: _175  and  _178
REMARK   62  A    between atoms: _178  and  _179
REMARK   63  A    between atoms: _180  and  ZN_406
REMARK   64  A    between atoms: _184  and  _186
REMARK   65  A    between atoms: _186  and  _187
REMARK   66  A    between atoms: _186  and  _189
REMARK   67  A    between atoms: _189  and  _190
REMARK   68  A    between atoms: _193  and  _195
REMARK   69  A    between atoms: _195  and  _196
REMARK   70  A    between atoms: _195  and  _198
REMARK   71  A    between atoms: _201  and  _203
REMARK   72  A    between atoms: _203  and  _204
REMARK   73  A    between atoms: _203  and  _206
REMARK   74  A    between atoms: _206  and  _207
REMARK   75  A    between atoms: _212  and  _214
REMARK   76  A    between atoms: _214  and  _215
REMARK   77  A    between atoms: _214  and  _217
REMARK   78  A    between atoms: _217  and  _218
REMARK   79  A    between atoms: _228  and  _230
REMARK   80  A    between atoms: _230  and  _231
REMARK   81  A    between atoms: _230  and  _233
REMARK   82  A    between atoms: _233  and  _234
REMARK   83  A    between atoms: _240  and  _242
REMARK   84  A    between atoms: _242  and  _243
REMARK   85  A    between atoms: _242  and  _245
REMARK   86  A    between atoms: _248  and  _250
REMARK   87  A    between atoms: _250  and  _251
REMARK   88  A    between atoms: _250  and  _253
REMARK   89  A    between atoms: _253  and  _254
REMARK   90  A    between atoms: _257  and  _259
REMARK   91  A    between atoms: _259  and  _260
REMARK   92  A    between atoms: _263  and  _265
REMARK   93  A    between atoms: _265  and  _266
REMARK   94  A    between atoms: _265  and  _268
REMARK   95  A    between atoms: _271  and  _273
REMARK   96  A    between atoms: _273  and  _274
REMARK   97  A    between atoms: _273  and  _276
REMARK   98  A    between atoms: _276  and  _277
REMARK   99  A    between atoms: _280  and  _282
REMARK  100  A    between atoms: _282  and  _283
REMARK  101  A    between atoms: _282  and  _285
REMARK  102  A    between atoms: _285  and  _286
REMARK  103  A    between atoms: _288  and  _290
REMARK  104  A    between atoms: _290  and  _291
REMARK  105  A    between atoms: _290  and  _293
REMARK  106  A    between atoms: _293  and  _294
REMARK  107  A    between atoms: _297  and  _299
REMARK  108  A    between atoms: _299  and  _300
REMARK  109  A    between atoms: _299  and  _302
REMARK  110  A    between atoms: _302  and  _303
REMARK  111  A    between atoms: _306  and  _308
REMARK  112  A    between atoms: _308  and  _309
REMARK  113  A    between atoms: _308  and  _311
REMARK  114  A    between atoms: _311  and  _312
REMARK  115  A    between atoms: _316  and  _317
REMARK  116  A    between atoms: _323  and  _324
REMARK  117  A    between atoms: _329  and  _331
REMARK  118  A    between atoms: _331  and  _332
REMARK  119  A    between atoms: _331  and  _334
REMARK  120  A    between atoms: _334  and  _335
REMARK  121  A    between atoms: _338  and  _340
REMARK  122  A    between atoms: _340  and  _341
REMARK  123  A    between atoms: _340  and  _343
REMARK  124  A    between atoms: _343  and  _344
REMARK  125  A    between atoms: _347  and  _349
REMARK  126  A    between atoms: _349  and  _350
REMARK  127  A    between atoms: _349  and  _352
REMARK  128  A    between atoms: _354  and  _356
REMARK  129  A    between atoms: _356  and  _357
REMARK  130  A    between atoms: _356  and  _359
REMARK  131  A    between atoms: _362  and  _364
REMARK  132  A    between atoms: _364  and  _365
REMARK  133  A    between atoms: _364  and  _367
REMARK  134  A    between atoms: _367  and  _368
REMARK  135  A    between atoms: _378  and  _380
REMARK  136  A    between atoms: _380  and  _381
REMARK  137  A    between atoms: _380  and  _383
REMARK  138  A    between atoms: _383  and  _384
REMARK  139  A    between atoms: _389  and  _391
REMARK  140  A    between atoms: _391  and  _392
REMARK  141  A    between atoms: _391  and  _394
REMARK  142  A    between atoms: _394  and  _395
REMARK  143  A    between atoms: _395  and  _396
REMARK  144  A    between atoms: _396  and  _397
REMARK                            x       y       z     vdW  Elec       q    Type
REMARK                         _______ _______ _______ _____ _____    ______ ____
ROOT
ATOM      1  CA  SER A   1      18.223  -2.460  24.160  0.00  0.00    +0.163 C 
ENDROOT
BRANCH   1   2
ATOM      2  N   SER A   1      19.294  -1.539  24.632  0.00  0.00    -0.237 NA
ATOM      3  H   SER A   1      19.806  -0.966  23.931  0.00  0.00    +0.142 HD
ENDBRANCH   1   2
BRANCH   1   4
ATOM      4  C   SER A   1      18.739  -3.374  23.075  0.00  0.00    +0.227 C 
ATOM      5  O   SER A   1      19.683  -2.996  22.380  0.00  0.00    -0.287 OA
ENDBRANCH   1   4
BRANCH   1   6
ATOM      6  CB  SER A   1      17.035  -1.683  23.571  0.00  0.00    +0.162 C 
BRANCH   6   7
ATOM      7  OG  SER A   1      16.416  -0.887  24.654  0.00  0.00    -0.380 OA
ATOM      8  H   SER A   1      16.103  -1.494  25.371  0.00  0.00    +0.211 HD
ENDBRANCH   6   7
ENDBRANCH   1   6
TORSDOF 4
REMARK  Name = ../refined-set-2016/4q8y/4q8y_pocket.pdb
REMARK  144 active torsions:
REMARK  status: ('A' for Active; 'I' for Inactive)
REMARK    1  A    between atoms: _1  and  _3
REMARK    2  A    between atoms: _3  and  _4
REMARK    3  A    between atoms: _3  and  _6
REMARK    4  A    between atoms: _6  and  _7
REMARK    5  A    between atoms: _17  and  _19
REMARK    6  A    between atoms: _19  and  _20
REMARK    7  A    between atoms: _19  and  _22
REMARK    8  A    between atoms: _22  and  _23
REMARK    9  A    between atoms: _28  and  _29
REMARK   10  A    between atoms: _31  and  _33
REMARK   11  A    between atoms: _33  and  _34
REMARK   12  A    between atoms: _33  and  _36
REMARK   13  A    between atoms: _36  and  _37
REMARK   14  A    between atoms: _39  and  _41
REMARK   15  A    between atoms: _41  and  _42
REMARK   16  A    between atoms: _41  and  _44
REMARK   17  A    between atoms: _44  and  _45
REMARK   18  A    between atoms: _50  and  _52
REMARK   19  A    between atoms: _52  and  _53
REMARK   20  A    between atoms: _52  and  _55
REMARK   21  A    between atoms: _55  and  _56
REMARK   22  A    between atoms: _61  and  _63
REMARK   23  A    between atoms: _63  and  _64
REMARK   24  A    between atoms: _67  and  _69
REMARK   25  A    between atoms: _69  and  _70
REMARK   26  A    between atoms: _69  and  _72
REMARK   27  A    between atoms: _72  and  _73
REMARK   28  A    between atoms: _78  and  _80
REMARK   29  A    between atoms: _80  and  _81
REMARK   30  A    between atoms: _80  and  _83
REMARK   31  A    between atoms: _83  and  _84
REMARK   32  A    between atoms: _87  and  _89
REMARK   33  A    between atoms: _89  and  _90
REMARK   34  A    between atoms: _89  and  _92
REMARK   35  A    between atoms: _92  and  _93
REMARK   36  A    between atoms: _93  and  _94
REMARK   37  A    between atoms: _99  and  _101
REMARK   38  A    between atoms: _112  and  _115
REMARK   39  A    between atoms: _115  and  _116
REMARK   40  A    between atoms: _124  and  _125
REMARK   41  A    between atoms: _133  and  _135
REMARK   42  A    between atoms: _135  and  _136
REMARK   43  A    between atoms: _135  and  _138
REMARK   44  A    between atoms: _138  and  _139
REMARK   45  A    between atoms: _139  and  _140
REMARK   46  A    between atoms: _143  and  _145
REMARK   47  A    between atoms: _145  and  _146
REMARK   48  A    between atoms: _145  and  _148
REMARK   49  A    between atoms: _148  and  _149
REMARK   50  A    between atoms: _154  and  _156
REMARK   51  A    between atoms: _156  and  _157
REMARK   52  A    between atoms: _156  and  _159
REMARK   53  A    between atoms: _159  and  _160
REMARK   54  A    between atoms: _160  and  _161
REMARK   55  A    between atoms: _164  and  _166
REMARK   56  A    between atoms: _166  and  _167
REMARK   57  A    between atoms: _166  and  _169
REMARK   58  A    between atoms: _169  and  _170
REMARK   59  A    between atoms: _173  and  _175
REMARK   60  A    between atoms: _175  and  _176
REMARK   61  A    between atoms: _175  and  _178
REMARK   62  A    between atoms: _178  and  _179
REMARK   63  A    between atoms: _180  and  ZN_406
REMARK   64  A    between atoms: _184  and  _186
REMARK   65  A    between atoms: _186  and  _187
REMARK   66  A    between atoms: _186  and  _189
REMARK   67  A    between atoms: _189  and  _190
REMARK   68  A    between atoms: _193  and  _195
REMARK   69  A    between atoms: _195  and  _196
REMARK   70  A    between atoms: _195  and  _198
REMARK   71  A    between atoms: _201  and  _203
REMARK   72  A    between atoms: _203  and  _204
REMARK   73  A    between atoms: _203  and  _206
REMARK   74  A    between atoms: _206  and  _207
REMARK   75  A    between atoms: _212  and  _214
REMARK   76  A    between atoms: _214  and  _215
REMARK   77  A    between atoms: _214  and  _217
REMARK   78  A    between atoms: _217  and  _218
REMARK   79  A    between atoms: _228  and  _230
REMARK   80  A    between atoms: _230  and  _231
REMARK   81  A    between atoms: _230  and  _233
REMARK   82  A    between atoms: _233  and  _234
REMARK   83  A    between atoms: _240  and  _242
REMARK   84  A    between atoms: _242  and  _243
REMARK   85  A    between atoms: _242  and  _245
REMARK   86  A    between atoms: _248  and  _250
REMARK   87  A    between atoms: _250  and  _251
REMARK   88  A    between atoms: _250  and  _253
REMARK   89  A    between atoms: _253  and  _254
REMARK   90  A    between atoms: _257  and  _259
REMARK   91  A    between atoms: _259  and  _260
REMARK   92  A    between atoms: _263  and  _265
REMARK   93  A    between atoms: _265  and  _266
REMARK   94  A    between atoms: _265  and  _268
REMARK   95  A    between atoms: _271  and  _273
REMARK   96  A    between atoms: _273  and  _274
REMARK   97  A    between atoms: _273  and  _276
REMARK   98  A    between atoms: _276  and  _277
REMARK   99  A    between atoms: _280  and  _282
REMARK  100  A    between atoms: _282  and  _283
REMARK  101  A    between atoms: _282  and  _285
REMARK  102  A    between atoms: _285  and  _286
REMARK  103  A    between atoms: _288  and  _290
REMARK  104  A    between atoms: _290  and  _291
REMARK  105  A    between atoms: _290  and  _293
REMARK  106  A    between atoms: _293  and  _294
REMARK  107  A    between atoms: _297  and  _299
REMARK  108  A    between atoms: _299  and  _300
REMARK  109  A    between atoms: _299  and  _302
REMARK  110  A    between atoms: _302  and  _303
REMARK  111  A    between atoms: _306  and  _308
REMARK  112  A    between atoms: _308  and  _309
REMARK  113  A    between atoms: _308  and  _311
REMARK  114  A    between atoms: _311  and  _312
REMARK  115  A    between atoms: _316  and  _317
REMARK  116  A    between atoms: _323  and  _324
REMARK  117  A    between atoms: _329  and  _331
REMARK  118  A    between atoms: _331  and  _332
REMARK  119  A    between atoms: _331  and  _334
REMARK  120  A    between atoms: _334  and  _335
REMARK  121  A    between atoms: _338  and  _340
REMARK  122  A    between atoms: _340  and  _341
REMARK  123  A    between atoms: _340  and  _343
REMARK  124  A    between atoms: _343  and  _344
REMARK  125  A    between atoms: _347  and  _349
REMARK  126  A    between atoms: _349  and  _350
REMARK  127  A    between atoms: _349  and  _352
REMARK  128  A    between atoms: _354  and  _356
REMARK  129  A    between atoms: _356  and  _357
REMARK  130  A    between atoms: _356  and  _359
REMARK  131  A    between atoms: _362  and  _364
REMARK  132  A    between atoms: _364  and  _365
REMARK  133  A    between atoms: _364  and  _367
REMARK  134  A    between atoms: _367  and  _368
REMARK  135  A    between atoms: _378  and  _380
REMARK  136  A    between atoms: _380  and  _381
REMARK  137  A    between atoms: _380  and  _383
REMARK  138  A    between atoms: _383  and  _384
REMARK  139  A    between atoms: _389  and  _391
REMARK  140  A    between atoms: _391  and  _392
REMARK  141  A    between atoms: _391  and  _394
REMARK  142  A    between atoms: _394  and  _395
REMARK  143  A    between atoms: _395  and  _396
REMARK  144  A    between atoms: _396  and  _397
REMARK                            x       y       z     vdW  Elec       q    Type
REMARK                         _______ _______ _______ _____ _____    ______ ____
ROOT
ATOM      1  CB  ASN A   1      18.574   1.805   5.342  0.00  0.00    +0.110 C 
ENDROOT
BRANCH   1   2
ATOM      2  CG  ASN A   1      18.296   0.968   6.557  0.00  0.00    +0.221 C 
ATOM      3  ND2 ASN A   1      17.772   1.581   7.545  0.00  0.00    -0.329 N 
ATOM      4 HD21 ASN A   1      17.520   1.057   8.407  0.00  0.00    +0.145 HD
ATOM      5 HD22 ASN A   1      17.597   2.605   7.488  0.00  0.00    +0.145 HD
ATOM      6  OD1 ASN A   1      18.540  -0.224   6.526  0.00  0.00    -0.275 OA
ENDBRANCH   1   2
BRANCH   1   7
ATOM      7  CA  ASN A   1      18.910   0.948   4.110  0.00  0.00    +0.142 C 
BRANCH   7   8
ATOM      8  N   ASN A   1      17.767   0.127   3.630  0.00  0.00    -0.239 NA
ATOM      9  H   ASN A   1      17.182  -0.388   4.318  0.00  0.00    +0.142 HD
ENDBRANCH   7   8
BRANCH   7  10
ATOM     10  C   ASN A   1      20.199   0.217   4.316  0.00  0.00    +0.225 C 
ATOM     11  O   ASN A   1      21.208   0.680   4.905  0.00  0.00    -0.287 OA
ENDBRANCH   7  10
ENDBRANCH   1   7
TORSDOF 4
REMARK  Name = ../refined-set-2016/4q8y/4q8y_pocket.pdb
REMARK  144 active torsions:
REMARK  status: ('A' for Active; 'I' for Inactive)
REMARK    1  A    between atoms: _1  and  _3
REMARK    2  A    between atoms: _3  and  _4
REMARK    3  A    between atoms: _3  and  _6
REMARK    4  A    between atoms: _6  and  _7
REMARK    5  A    between atoms: _17  and  _19
REMARK    6  A    between atoms: _19  and  _20
REMARK    7  A    between atoms: _19  and  _22
REMARK    8  A    between atoms: _22  and  _23
REMARK    9  A    between atoms: _28  and  _29
REMARK   10  A    between atoms: _31  and  _33
REMARK   11  A    between atoms: _33  and  _34
REMARK   12  A    between atoms: _33  and  _36
REMARK   13  A    between atoms: _36  and  _37
REMARK   14  A    between atoms: _39  and  _41
REMARK   15  A    between atoms: _41  and  _42
REMARK   16  A    between atoms: _41  and  _44
REMARK   17  A    between atoms: _44  and  _45
REMARK   18  A    between atoms: _50  and  _52
REMARK   19  A    between atoms: _52  and  _53
REMARK   20  A    between atoms: _52  and  _55
REMARK   21  A    between atoms: _55  and  _56
REMARK   22  A    between atoms: _61  and  _63
REMARK   23  A    between atoms: _63  and  _64
REMARK   24  A    between atoms: _67  and  _69
REMARK   25  A    between atoms: _69  and  _70
REMARK   26  A    between atoms: _69  and  _72
REMARK   27  A    between atoms: _72  and  _73
REMARK   28  A    between atoms: _78  and  _80
REMARK   29  A    between atoms: _80  and  _81
REMARK   30  A    between atoms: _80  and  _83
REMARK   31  A    between atoms: _83  and  _84
REMARK   32  A    between atoms: _87  and  _89
REMARK   33  A    between atoms: _89  and  _90
REMARK   34  A    between atoms: _89  and  _92
REMARK   35  A    between atoms: _92  and  _93
REMARK   36  A    between atoms: _93  and  _94
REMARK   37  A    between atoms: _99  and  _101
REMARK   38  A    between atoms: _112  and  _115
REMARK   39  A    between atoms: _115  and  _116
REMARK   40  A    between atoms: _124  and  _125
REMARK   41  A    between atoms: _133  and  _135
REMARK   42  A    between atoms: _135  and  _136
REMARK   43  A    between atoms: _135  and  _138
REMARK   44  A    between atoms: _138  and  _139
REMARK   45  A    between atoms: _139  and  _140
REMARK   46  A    between atoms: _143  and  _145
REMARK   47  A    between atoms: _145  and  _146
REMARK   48  A    between atoms: _145  and  _148
REMARK   49  A    between atoms: _148  and  _149
REMARK   50  A    between atoms: _154  and  _156
REMARK   51  A    between atoms: _156  and  _157
REMARK   52  A    between atoms: _156  and  _159
REMARK   53  A    between atoms: _159  and  _160
REMARK   54  A    between atoms: _160  and  _161
REMARK   55  A    between atoms: _164  and  _166
REMARK   56  A    between atoms: _166  and  _167
REMARK   57  A    between atoms: _166  and  _169
REMARK   58  A    between atoms: _169  and  _170
REMARK   59  A    between atoms: _173  and  _175
REMARK   60  A    between atoms: _175  and  _176
REMARK   61  A    between atoms: _175  and  _178
REMARK   62  A    between atoms: _178  and  _179
REMARK   63  A    between atoms: _180  and  ZN_406
REMARK   64  A    between atoms: _184  and  _186
REMARK   65  A    between atoms: _186  and  _187
REMARK   66  A    between atoms: _186  and  _189
REMARK   67  A    between atoms: _189  and  _190
REMARK   68  A    between atoms: _193  and  _195
REMARK   69  A    between atoms: _195  and  _196
REMARK   70  A    between atoms: _195  and  _198
REMARK   71  A    between atoms: _201  and  _203
REMARK   72  A    between atoms: _203  and  _204
REMARK   73  A    between atoms: _203  and  _206
REMARK   74  A    between atoms: _206  and  _207
REMARK   75  A    between atoms: _212  and  _214
REMARK   76  A    between atoms: _214  and  _215
REMARK   77  A    between atoms: _214  and  _217
REMARK   78  A    between atoms: _217  and  _218
REMARK   79  A    between atoms: _228  and  _230
REMARK   80  A    between atoms: _230  and  _231
REMARK   81  A    between atoms: _230  and  _233
REMARK   82  A    between atoms: _233  and  _234
REMARK   83  A    between atoms: _240  and  _242
REMARK   84  A    between atoms: _242  and  _243
REMARK   85  A    between atoms: _242  and  _245
REMARK   86  A    between atoms: _248  and  _250
REMARK   87  A    between atoms: _250  and  _251
REMARK   88  A    between atoms: _250  and  _253
REMARK   89  A    between atoms: _253  and  _254
REMARK   90  A    between atoms: _257  and  _259
REMARK   91  A    between atoms: _259  and  _260
REMARK   92  A    between atoms: _263  and  _265
REMARK   93  A    between atoms: _265  and  _266
REMARK   94  A    between atoms: _265  and  _268
REMARK   95  A    between atoms: _271  and  _273
REMARK   96  A    between atoms: _273  and  _274
REMARK   97  A    between atoms: _273  and  _276
REMARK   98  A    between atoms: _276  and  _277
REMARK   99  A    between atoms: _280  and  _282
REMARK  100  A    between atoms: _282  and  _283
REMARK  101  A    between atoms: _282  and  _285
REMARK  102  A    between atoms: _285  and  _286
REMARK  103  A    between atoms: _288  and  _290
REMARK  104  A    between atoms: _290  and  _291
REMARK  105  A    between atoms: _290  and  _293
REMARK  106  A    between atoms: _293  and  _294
REMARK  107  A    between atoms: _297  and  _299
REMARK  108  A    between atoms: _299  and  _300
REMARK  109  A    between atoms: _299  and  _302
REMARK  110  A    between atoms: _302  and  _303
REMARK  111  A    between atoms: _306  and  _308
REMARK  112  A    between atoms: _308  and  _309
REMARK  113  A    between atoms: _308  and  _311
REMARK  114  A    between atoms: _311  and  _312
REMARK  115  A    between atoms: _316  and  _317
REMARK  116  A    between atoms: _323  and  _324
REMARK  117  A    between atoms: _329  and  _331
REMARK  118  A    between atoms: _331  and  _332
REMARK  119  A    between atoms: _331  and  _334
REMARK  120  A    between atoms: _334  and  _335
REMARK  121  A    between atoms: _338  and  _340
REMARK  122  A    between atoms: _340  and  _341
REMARK  123  A    between atoms: _340  and  _343
REMARK  124  A    between atoms: _343  and  _344
REMARK  125  A    between atoms: _347  and  _349
REMARK  126  A    between atoms: _349  and  _350
REMARK  127  A    between atoms: _349  and  _352
REMARK  128  A    between atoms: _354  and  _356
REMARK  129  A    between atoms: _356  and  _357
REMARK  130  A    between atoms: _356  and  _359
REMARK  131  A    between atoms: _362  and  _364
REMARK  132  A    between atoms: _364  and  _365
REMARK  133  A    between atoms: _364  and  _367
REMARK  134  A    between atoms: _367  and  _368
REMARK  135  A    between atoms: _378  and  _380
REMARK  136  A    between atoms: _380  and  _381
REMARK  137  A    between atoms: _380  and  _383
REMARK  138  A    between atoms: _383  and  _384
REMARK  139  A    between atoms: _389  and  _391
REMARK  140  A    between atoms: _391  and  _392
REMARK  141  A    between atoms: _391  and  _394
REMARK  142  A    between atoms: _394  and  _395
REMARK  143  A    between atoms: _395  and  _396
REMARK  144  A    between atoms: _396  and  _397
REMARK                            x       y       z     vdW  Elec       q    Type
REMARK                         _______ _______ _______ _____ _____    ______ ____
ROOT
ATOM      1  CA  HIS A   1      20.296  -3.074   7.542  0.00  0.00    +0.151 C 
ENDROOT
BRANCH   1   2
ATOM      2  C   HIS A   1      18.909  -3.660   7.756  0.00  0.00    +0.239 C 
ATOM      3  O   HIS A   1      18.761  -4.680   8.512  0.00  0.00    -0.274 OA
ATOM      4  N   ALA A   2      17.907  -3.031   7.172  0.00  0.00    -0.298 N 
ATOM      5  H   ALA A   2      18.127  -2.203   6.583  0.00  0.00    +0.150 HD
BRANCH   4   6
ATOM      6  CA  ALA A   2      16.530  -3.422   7.301  0.00  0.00    +0.137 C 
ATOM      7  CB  ALA A   2      15.958  -3.047   8.700  0.00  0.00    +0.030 C 
BRANCH   6   8
ATOM      8  C   ALA A   2      15.825  -2.675   6.165  0.00  0.00    +0.227 C 
ATOM      9  O   ALA A   2      16.497  -2.054   5.322  0.00  0.00    -0.286 OA
ENDBRANCH   6   8
ENDBRANCH   4   6
ENDBRANCH   1   2
BRANCH   1  10
ATOM     10  N   HIS A   1      20.432  -2.388   6.240  0.00  0.00    -0.238 NA
ATOM     11  H   HIS A   1      19.752  -1.637   6.006  0.00  0.00    +0.142 HD
ENDBRANCH   1  10
BRANCH   1  12
ATOM     12  CB  HIS A   1      20.627  -2.084   8.649  0.00  0.00    +0.074 C 
BRANCH  12  13
ATOM     13  CG  HIS A   1      21.933  -1.409   8.423  0.00  0.00    +0.082 A 
ATOM     14  CD2 HIS A   1      23.193  -1.873   8.570  0.00  0.00    +0.115 A 
ATOM     15  NE2 HIS A   1      24.040  -0.830   8.240  0.00  0.00    -0.221 NA
ATOM     16  CE1 HIS A   1      23.320   0.201   7.846  0.00  0.00    +0.199 A 
ATOM     17  ND1 HIS A   1      22.040  -0.115   7.991  0.00  0.00    -0.227 NA
ENDBRANCH  12  13
ENDBRANCH   1  12
TORSDOF 6
REMARK  Name = ../refined-set-2016/4q8y/4q8y_pocket.pdb
REMARK  144 active torsions:
REMARK  status: ('A' for Active; 'I' for Inactive)
REMARK    1  A    between atoms: _1  and  _3
REMARK    2  A    between atoms: _3  and  _4
REMARK    3  A    between atoms: _3  and  _6
REMARK    4  A    between atoms: _6  and  _7
REMARK    5  A    between atoms: _17  and  _19
REMARK    6  A    between atoms: _19  and  _20
REMARK    7  A    between atoms: _19  and  _22
REMARK    8  A    between atoms: _22  and  _23
REMARK    9  A    between atoms: _28  and  _29
REMARK   10  A    between atoms: _31  and  _33
REMARK   11  A    between atoms: _33  and  _34
REMARK   12  A    between atoms: _33  and  _36
REMARK   13  A    between atoms: _36  and  _37
REMARK   14  A    between atoms: _39  and  _41
REMARK   15  A    between atoms: _41  and  _42
REMARK   16  A    between atoms: _41  and  _44
REMARK   17  A    between atoms: _44  and  _45
REMARK   18  A    between atoms: _50  and  _52
REMARK   19  A    between atoms: _52  and  _53
REMARK   20  A    between atoms: _52  and  _55
REMARK   21  A    between atoms: _55  and  _56
REMARK   22  A    between atoms: _61  and  _63
REMARK   23  A    between atoms: _63  and  _64
REMARK   24  A    between atoms: _67  and  _69
REMARK   25  A    between atoms: _69  and  _70
REMARK   26  A    between atoms: _69  and  _72
REMARK   27  A    between atoms: _72  and  _73
REMARK   28  A    between atoms: _78  and  _80
REMARK   29  A    between atoms: _80  and  _81
REMARK   30  A    between atoms: _80  and  _83
REMARK   31  A    between atoms: _83  and  _84
REMARK   32  A    between atoms: _87  and  _89
REMARK   33  A    between atoms: _89  and  _90
REMARK   34  A    between atoms: _89  and  _92
REMARK   35  A    between atoms: _92  and  _93
REMARK   36  A    between atoms: _93  and  _94
REMARK   37  A    between atoms: _99  and  _101
REMARK   38  A    between atoms: _112  and  _115
REMARK   39  A    between atoms: _115  and  _116
REMARK   40  A    between atoms: _124  and  _125
REMARK   41  A    between atoms: _133  and  _135
REMARK   42  A    between atoms: _135  and  _136
REMARK   43  A    between atoms: _135  and  _138
REMARK   44  A    between atoms: _138  and  _139
REMARK   45  A    between atoms: _139  and  _140
REMARK   46  A    between atoms: _143  and  _145
REMARK   47  A    between atoms: _145  and  _146
REMARK   48  A    between atoms: _145  and  _148
REMARK   49  A    between atoms: _148  and  _149
REMARK   50  A    between atoms: _154  and  _156
REMARK   51  A    between atoms: _156  and  _157
REMARK   52  A    between atoms: _156  and  _159
REMARK   53  A    between atoms: _159  and  _160
REMARK   54  A    between atoms: _160  and  _161
REMARK   55  A    between atoms: _164  and  _166
REMARK   56  A    between atoms: _166  and  _167
REMARK   57  A    between atoms: _166  and  _169
REMARK   58  A    between atoms: _169  and  _170
REMARK   59  A    between atoms: _173  and  _175
REMARK   60  A    between atoms: _175  and  _176
REMARK   61  A    between atoms: _175  and  _178
REMARK   62  A    between atoms: _178  and  _179
REMARK   63  A    between atoms: _180  and  ZN_406
REMARK   64  A    between atoms: _184  and  _186
REMARK   65  A    between atoms: _186  and  _187
REMARK   66  A    between atoms: _186  and  _189
REMARK   67  A    between atoms: _189  and  _190
REMARK   68  A    between atoms: _193  and  _195
REMARK   69  A    between atoms: _195  and  _196
REMARK   70  A    between atoms: _195  and  _198
REMARK   71  A    between atoms: _201  and  _203
REMARK   72  A    between atoms: _203  and  _204
REMARK   73  A    between atoms: _203  and  _206
REMARK   74  A    between atoms: _206  and  _207
REMARK   75  A    between atoms: _212  and  _214
REMARK   76  A    between atoms: _214  and  _215
REMARK   77  A    between atoms: _214  and  _217
REMARK   78  A    between atoms: _217  and  _218
REMARK   79  A    between atoms: _228  and  _230
REMARK   80  A    between atoms: _230  and  _231
REMARK   81  A    between atoms: _230  and  _233
REMARK   82  A    between atoms: _233  and  _234
REMARK   83  A    between atoms: _240  and  _242
REMARK   84  A    between atoms: _242  and  _243
REMARK   85  A    between atoms: _242  and  _245
REMARK   86  A    between atoms: _248  and  _250
REMARK   87  A    between atoms: _250  and  _251
REMARK   88  A    between atoms: _250  and  _253
REMARK   89  A    between atoms: _253  and  _254
REMARK   90  A    between atoms: _257  and  _259
REMARK   91  A    between atoms: _259  and  _260
REMARK   92  A    between atoms: _263  and  _265
REMARK   93  A    between atoms: _265  and  _266
REMARK   94  A    between atoms: _265  and  _268
REMARK   95  A    between atoms: _271  and  _273
REMARK   96  A    between atoms: _273  and  _274
REMARK   97  A    between atoms: _273  and  _276
REMARK   98  A    between atoms: _276  and  _277
REMARK   99  A    between atoms: _280  and  _282
REMARK  100  A    between atoms: _282  and  _283
REMARK  101  A    between atoms: _282  and  _285
REMARK  102  A    between atoms: _285  and  _286
REMARK  103  A    between atoms: _288  and  _290
REMARK  104  A    between atoms: _290  and  _291
REMARK  105  A    between atoms: _290  and  _293
REMARK  106  A    between atoms: _293  and  _294
REMARK  107  A    between atoms: _297  and  _299
REMARK  108  A    between atoms: _299  and  _300
REMARK  109  A    between atoms: _299  and  _302
REMARK  110  A    between atoms: _302  and  _303
REMARK  111  A    between atoms: _306  and  _308
REMARK  112  A    between atoms: _308  and  _309
REMARK  113  A    between atoms: _308  and  _311
REMARK  114  A    between atoms: _311  and  _312
REMARK  115  A    between atoms: _316  and  _317
REMARK  116  A    between atoms: _323  and  _324
REMARK  117  A    between atoms: _329  and  _331
REMARK  118  A    between atoms: _331  and  _332
REMARK  119  A    between atoms: _331  and  _334
REMARK  120  A    between atoms: _334  and  _335
REMARK  121  A    between atoms: _338  and  _340
REMARK  122  A    between atoms: _340  and  _341
REMARK  123  A    between atoms: _340  and  _343
REMARK  124  A    between atoms: _343  and  _344
REMARK  125  A    between atoms: _347  and  _349
REMARK  126  A    between atoms: _349  and  _350
REMARK  127  A    between atoms: _349  and  _352
REMARK  128  A    between atoms: _354  and  _356
REMARK  129  A    between atoms: _356  and  _357
REMARK  130  A    between atoms: _356  and  _359
REMARK  131  A    between atoms: _362  and  _364
REMARK  132  A    between atoms: _364  and  _365
REMARK  133  A    between atoms: _364  and  _367
REMARK  134  A    between atoms: _367  and  _368
REMARK  135  A    between atoms: _378  and  _380
REMARK  136  A    between atoms: _380  and  _381
REMARK  137  A    between atoms: _380  and  _383
REMARK  138  A    between atoms: _383  and  _384
REMARK  139  A    between atoms: _389  and  _391
REMARK  140  A    between atoms: _391  and  _392
REMARK  141  A    between atoms: _391  and  _394
REMARK  142  A    between atoms: _394  and  _395
REMARK  143  A    between atoms: _395  and  _396
REMARK  144  A    between atoms: _396  and  _397
REMARK                            x       y       z     vdW  Elec       q    Type
REMARK                         _______ _______ _______ _____ _____    ______ ____
ROOT
ATOM      1  CB  ASN A   1      12.736   2.551   6.875  0.00  0.00    +0.110 C 
ENDROOT
BRANCH   1   2
ATOM      2  CG  ASN A   1      13.822   2.367   7.884  0.00  0.00    +0.221 C 
ATOM      3  OD1 ASN A   1      13.942   1.292   8.530  0.00  0.00    -0.275 OA
ATOM      4  ND2 ASN A   1      14.697   3.351   8.003  0.00  0.00    -0.329 N 
ATOM      5 HD21 ASN A   1      15.510   3.249   8.643  0.00  0.00    +0.145 HD
ATOM      6 HD22 ASN A   1      14.572   4.227   7.457  0.00  0.00    +0.145 HD
ENDBRANCH   1   2
BRANCH   1   7
ATOM      7  CA  ASN A   1      11.982   1.233   6.545  0.00  0.00    +0.142 C 
BRANCH   7   8
ATOM      8  N   ASN A   1      12.807   0.324   5.808  0.00  0.00    -0.239 NA
ATOM      9  H   ASN A   1      13.345   0.660   4.984  0.00  0.00    +0.142 HD
ENDBRANCH   7   8
BRANCH   7  10
ATOM     10  C   ASN A   1      10.754   1.628   5.754  0.00  0.00    +0.225 C 
ATOM     11  O   ASN A   1      10.944   2.056   4.599  0.00  0.00    -0.287 OA
ENDBRANCH   7  10
ENDBRANCH   1   7
TORSDOF 4
REMARK  Name = ../refined-set-2016/4q8y/4q8y_pocket.pdb
REMARK  144 active torsions:
REMARK  status: ('A' for Active; 'I' for Inactive)
REMARK    1  A    between atoms: _1  and  _3
REMARK    2  A    between atoms: _3  and  _4
REMARK    3  A    between atoms: _3  and  _6
REMARK    4  A    between atoms: _6  and  _7
REMARK    5  A    between atoms: _17  and  _19
REMARK    6  A    between atoms: _19  and  _20
REMARK    7  A    between atoms: _19  and  _22
REMARK    8  A    between atoms: _22  and  _23
REMARK    9  A    between atoms: _28  and  _29
REMARK   10  A    between atoms: _31  and  _33
REMARK   11  A    between atoms: _33  and  _34
REMARK   12  A    between atoms: _33  and  _36
REMARK   13  A    between atoms: _36  and  _37
REMARK   14  A    between atoms: _39  and  _41
REMARK   15  A    between atoms: _41  and  _42
REMARK   16  A    between atoms: _41  and  _44
REMARK   17  A    between atoms: _44  and  _45
REMARK   18  A    between atoms: _50  and  _52
REMARK   19  A    between atoms: _52  and  _53
REMARK   20  A    between atoms: _52  and  _55
REMARK   21  A    between atoms: _55  and  _56
REMARK   22  A    between atoms: _61  and  _63
REMARK   23  A    between atoms: _63  and  _64
REMARK   24  A    between atoms: _67  and  _69
REMARK   25  A    between atoms: _69  and  _70
REMARK   26  A    between atoms: _69  and  _72
REMARK   27  A    between atoms: _72  and  _73
REMARK   28  A    between atoms: _78  and  _80
REMARK   29  A    between atoms: _80  and  _81
REMARK   30  A    between atoms: _80  and  _83
REMARK   31  A    between atoms: _83  and  _84
REMARK   32  A    between atoms: _87  and  _89
REMARK   33  A    between atoms: _89  and  _90
REMARK   34  A    between atoms: _89  and  _92
REMARK   35  A    between atoms: _92  and  _93
REMARK   36  A    between atoms: _93  and  _94
REMARK   37  A    between atoms: _99  and  _101
REMARK   38  A    between atoms: _112  and  _115
REMARK   39  A    between atoms: _115  and  _116
REMARK   40  A    between atoms: _124  and  _125
REMARK   41  A    between atoms: _133  and  _135
REMARK   42  A    between atoms: _135  and  _136
REMARK   43  A    between atoms: _135  and  _138
REMARK   44  A    between atoms: _138  and  _139
REMARK   45  A    between atoms: _139  and  _140
REMARK   46  A    between atoms: _143  and  _145
REMARK   47  A    between atoms: _145  and  _146
REMARK   48  A    between atoms: _145  and  _148
REMARK   49  A    between atoms: _148  and  _149
REMARK   50  A    between atoms: _154  and  _156
REMARK   51  A    between atoms: _156  and  _157
REMARK   52  A    between atoms: _156  and  _159
REMARK   53  A    between atoms: _159  and  _160
REMARK   54  A    between atoms: _160  and  _161
REMARK   55  A    between atoms: _164  and  _166
REMARK   56  A    between atoms: _166  and  _167
REMARK   57  A    between atoms: _166  and  _169
REMARK   58  A    between atoms: _169  and  _170
REMARK   59  A    between atoms: _173  and  _175
REMARK   60  A    between atoms: _175  and  _176
REMARK   61  A    between atoms: _175  and  _178
REMARK   62  A    between atoms: _178  and  _179
REMARK   63  A    between atoms: _180  and  ZN_406
REMARK   64  A    between atoms: _184  and  _186
REMARK   65  A    between atoms: _186  and  _187
REMARK   66  A    between atoms: _186  and  _189
REMARK   67  A    between atoms: _189  and  _190
REMARK   68  A    between atoms: _193  and  _195
REMARK   69  A    between atoms: _195  and  _196
REMARK   70  A    between atoms: _195  and  _198
REMARK   71  A    between atoms: _201  and  _203
REMARK   72  A    between atoms: _203  and  _204
REMARK   73  A    between atoms: _203  and  _206
REMARK   74  A    between atoms: _206  and  _207
REMARK   75  A    between atoms: _212  and  _214
REMARK   76  A    between atoms: _214  and  _215
REMARK   77  A    between atoms: _214  and  _217
REMARK   78  A    between atoms: _217  and  _218
REMARK   79  A    between atoms: _228  and  _230
REMARK   80  A    between atoms: _230  and  _231
REMARK   81  A    between atoms: _230  and  _233
REMARK   82  A    between atoms: _233  and  _234
REMARK   83  A    between atoms: _240  and  _242
REMARK   84  A    between atoms: _242  and  _243
REMARK   85  A    between atoms: _242  and  _245
REMARK   86  A    between atoms: _248  and  _250
REMARK   87  A    between atoms: _250  and  _251
REMARK   88  A    between atoms: _250  and  _253
REMARK   89  A    between atoms: _253  and  _254
REMARK   90  A    between atoms: _257  and  _259
REMARK   91  A    between atoms: _259  and  _260
REMARK   92  A    between atoms: _263  and  _265
REMARK   93  A    between atoms: _265  and  _266
REMARK   94  A    between atoms: _265  and  _268
REMARK   95  A    between atoms: _271  and  _273
REMARK   96  A    between atoms: _273  and  _274
REMARK   97  A    between atoms: _273  and  _276
REMARK   98  A    between atoms: _276  and  _277
REMARK   99  A    between atoms: _280  and  _282
REMARK  100  A    between atoms: _282  and  _283
REMARK  101  A    between atoms: _282  and  _285
REMARK  102  A    between atoms: _285  and  _286
REMARK  103  A    between atoms: _288  and  _290
REMARK  104  A    between atoms: _290  and  _291
REMARK  105  A    between atoms: _290  and  _293
REMARK  106  A    between atoms: _293  and  _294
REMARK  107  A    between atoms: _297  and  _299
REMARK  108  A    between atoms: _299  and  _300
REMARK  109  A    between atoms: _299  and  _302
REMARK  110  A    between atoms: _302  and  _303
REMARK  111  A    between atoms: _306  and  _308
REMARK  112  A    between atoms: _308  and  _309
REMARK  113  A    between atoms: _308  and  _311
REMARK  114  A    between atoms: _311  and  _312
REMARK  115  A    between atoms: _316  and  _317
REMARK  116  A    between atoms: _323  and  _324
REMARK  117  A    between atoms: _329  and  _331
REMARK  118  A    between atoms: _331  and  _332
REMARK  119  A    between atoms: _331  and  _334
REMARK  120  A    between atoms: _334  and  _335
REMARK  121  A    between atoms: _338  and  _340
REMARK  122  A    between atoms: _340  and  _341
REMARK  123  A    between atoms: _340  and  _343
REMARK  124  A    between atoms: _343  and  _344
REMARK  125  A    between atoms: _347  and  _349
REMARK  126  A    between atoms: _349  and  _350
REMARK  127  A    between atoms: _349  and  _352
REMARK  128  A    between atoms: _354  and  _356
REMARK  129  A    between atoms: _356  and  _357
REMARK  130  A    between atoms: _356  and  _359
REMARK  131  A    between atoms: _362  and  _364
REMARK  132  A    between atoms: _364  and  _365
REMARK  133  A    between atoms: _364  and  _367
REMARK  134  A    between atoms: _367  and  _368
REMARK  135  A    between atoms: _378  and  _380
REMARK  136  A    between atoms: _380  and  _381
REMARK  137  A    between atoms: _380  and  _383
REMARK  138  A    between atoms: _383  and  _384
REMARK  139  A    between atoms: _389  and  _391
REMARK  140  A    between atoms: _391  and  _392
REMARK  141  A    between atoms: _391  and  _394
REMARK  142  A    between atoms: _394  and  _395
REMARK  143  A    between atoms: _395  and  _396
REMARK  144  A    between atoms: _396  and  _397
REMARK                            x       y       z     vdW  Elec       q    Type
REMARK                         _______ _______ _______ _____ _____    ______ ____
ROOT
ATOM      1  C   ILE A   1       8.301   7.321  10.686  0.00  0.00    +0.238 C 
ATOM      2  N   GLN A   2       8.509   6.100  11.205  0.00  0.00    -0.298 N 
ATOM      3  H   GLN A   2       8.446   5.964  12.234  0.00  0.00    +0.150 HD
ATOM      4  O   ILE A   1       8.370   7.534   9.456  0.00  0.00    -0.274 OA
ENDROOT
BRANCH   1   5
ATOM      5  CA  ILE A   1       7.941   8.458  11.608  0.00  0.00    +0.145 C 
BRANCH   5   6
ATOM      6  N   ILE A   1       7.089   8.107  12.701  0.00  0.00    -0.238 NA
ATOM      7  H   ILE A   1       7.441   7.461  13.436  0.00  0.00    +0.142 HD
ENDBRANCH   5   6
BRANCH   5   8
ATOM      8  CB  ILE A   1       9.234   9.192  12.096  0.00  0.00    +0.025 C 
ATOM      9  CG2 ILE A   1      10.045   8.396  13.130  0.00  0.00    +0.002 C 
BRANCH   8  10
ATOM     10  CG1 ILE A   1      10.143   9.571  10.900  0.00  0.00    +0.002 C 
ATOM     11  CD1 ILE A   1      11.355  10.548  11.313  0.00  0.00    +0.000 C 
ENDBRANCH   8  10
ENDBRANCH   5   8
ENDBRANCH   1   5
BRANCH   2  12
ATOM     12  CA  GLN A   2       8.820   4.966  10.353  0.00  0.00    +0.137 C 
BRANCH  12  13
ATOM     13  C   GLN A   2       8.559   3.702  11.111  0.00  0.00    +0.227 C 
ATOM     14  O   GLN A   2       8.448   3.701  12.334  0.00  0.00    -0.286 OA
ENDBRANCH  12  13
BRANCH  12  15
ATOM     15  CB  GLN A   2      10.281   5.012   9.835  0.00  0.00    +0.037 C 
BRANCH  15  16
ATOM     16  CG  GLN A   2      11.325   5.029  10.980  0.00  0.00    +0.087 C 
BRANCH  16  17
ATOM     17  CD  GLN A   2      12.032   3.703  11.165  0.00  0.00    +0.219 C 
ATOM     18  OE1 GLN A   2      11.403   2.627  11.290  0.00  0.00    -0.275 OA
ATOM     19  NE2 GLN A   2      13.328   3.764  11.263  0.00  0.00    -0.329 N 
ATOM     20 HE21 GLN A   2      13.876   2.901  11.451  0.00  0.00    +0.145 HD
ATOM     21 HE22 GLN A   2      13.815   4.676  11.153  0.00  0.00    +0.145 HD
ENDBRANCH  16  17
ENDBRANCH  15  16
ENDBRANCH  12  15
ENDBRANCH   2  12
TORSDOF 9
REMARK  Name = ../refined-set-2016/4q8y/4q8y_pocket.pdb
REMARK  144 active torsions:
REMARK  status: ('A' for Active; 'I' for Inactive)
REMARK    1  A    between atoms: _1  and  _3
REMARK    2  A    between atoms: _3  and  _4
REMARK    3  A    between atoms: _3  and  _6
REMARK    4  A    between atoms: _6  and  _7
REMARK    5  A    between atoms: _17  and  _19
REMARK    6  A    between atoms: _19  and  _20
REMARK    7  A    between atoms: _19  and  _22
REMARK    8  A    between atoms: _22  and  _23
REMARK    9  A    between atoms: _28  and  _29
REMARK   10  A    between atoms: _31  and  _33
REMARK   11  A    between atoms: _33  and  _34
REMARK   12  A    between atoms: _33  and  _36
REMARK   13  A    between atoms: _36  and  _37
REMARK   14  A    between atoms: _39  and  _41
REMARK   15  A    between atoms: _41  and  _42
REMARK   16  A    between atoms: _41  and  _44
REMARK   17  A    between atoms: _44  and  _45
REMARK   18  A    between atoms: _50  and  _52
REMARK   19  A    between atoms: _52  and  _53
REMARK   20  A    between atoms: _52  and  _55
REMARK   21  A    between atoms: _55  and  _56
REMARK   22  A    between atoms: _61  and  _63
REMARK   23  A    between atoms: _63  and  _64
REMARK   24  A    between atoms: _67  and  _69
REMARK   25  A    between atoms: _69  and  _70
REMARK   26  A    between atoms: _69  and  _72
REMARK   27  A    between atoms: _72  and  _73
REMARK   28  A    between atoms: _78  and  _80
REMARK   29  A    between atoms: _80  and  _81
REMARK   30  A    between atoms: _80  and  _83
REMARK   31  A    between atoms: _83  and  _84
REMARK   32  A    between atoms: _87  and  _89
REMARK   33  A    between atoms: _89  and  _90
REMARK   34  A    between atoms: _89  and  _92
REMARK   35  A    between atoms: _92  and  _93
REMARK   36  A    between atoms: _93  and  _94
REMARK   37  A    between atoms: _99  and  _101
REMARK   38  A    between atoms: _112  and  _115
REMARK   39  A    between atoms: _115  and  _116
REMARK   40  A    between atoms: _124  and  _125
REMARK   41  A    between atoms: _133  and  _135
REMARK   42  A    between atoms: _135  and  _136
REMARK   43  A    between atoms: _135  and  _138
REMARK   44  A    between atoms: _138  and  _139
REMARK   45  A    between atoms: _139  and  _140
REMARK   46  A    between atoms: _143  and  _145
REMARK   47  A    between atoms: _145  and  _146
REMARK   48  A    between atoms: _145  and  _148
REMARK   49  A    between atoms: _148  and  _149
REMARK   50  A    between atoms: _154  and  _156
REMARK   51  A    between atoms: _156  and  _157
REMARK   52  A    between atoms: _156  and  _159
REMARK   53  A    between atoms: _159  and  _160
REMARK   54  A    between atoms: _160  and  _161
REMARK   55  A    between atoms: _164  and  _166
REMARK   56  A    between atoms: _166  and  _167
REMARK   57  A    between atoms: _166  and  _169
REMARK   58  A    between atoms: _169  and  _170
REMARK   59  A    between atoms: _173  and  _175
REMARK   60  A    between atoms: _175  and  _176
REMARK   61  A    between atoms: _175  and  _178
REMARK   62  A    between atoms: _178  and  _179
REMARK   63  A    between atoms: _180  and  ZN_406
REMARK   64  A    between atoms: _184  and  _186
REMARK   65  A    between atoms: _186  and  _187
REMARK   66  A    between atoms: _186  and  _189
REMARK   67  A    between atoms: _189  and  _190
REMARK   68  A    between atoms: _193  and  _195
REMARK   69  A    between atoms: _195  and  _196
REMARK   70  A    between atoms: _195  and  _198
REMARK   71  A    between atoms: _201  and  _203
REMARK   72  A    between atoms: _203  and  _204
REMARK   73  A    between atoms: _203  and  _206
REMARK   74  A    between atoms: _206  and  _207
REMARK   75  A    between atoms: _212  and  _214
REMARK   76  A    between atoms: _214  and  _215
REMARK   77  A    between atoms: _214  and  _217
REMARK   78  A    between atoms: _217  and  _218
REMARK   79  A    between atoms: _228  and  _230
REMARK   80  A    between atoms: _230  and  _231
REMARK   81  A    between atoms: _230  and  _233
REMARK   82  A    between atoms: _233  and  _234
REMARK   83  A    between atoms: _240  and  _242
REMARK   84  A    between atoms: _242  and  _243
REMARK   85  A    between atoms: _242  and  _245
REMARK   86  A    between atoms: _248  and  _250
REMARK   87  A    between atoms: _250  and  _251
REMARK   88  A    between atoms: _250  and  _253
REMARK   89  A    between atoms: _253  and  _254
REMARK   90  A    between atoms: _257  and  _259
REMARK   91  A    between atoms: _259  and  _260
REMARK   92  A    between atoms: _263  and  _265
REMARK   93  A    between atoms: _265  and  _266
REMARK   94  A    between atoms: _265  and  _268
REMARK   95  A    between atoms: _271  and  _273
REMARK   96  A    between atoms: _273  and  _274
REMARK   97  A    between atoms: _273  and  _276
REMARK   98  A    between atoms: _276  and  _277
REMARK   99  A    between atoms: _280  and  _282
REMARK  100  A    between atoms: _282  and  _283
REMARK  101  A    between atoms: _282  and  _285
REMARK  102  A    between atoms: _285  and  _286
REMARK  103  A    between atoms: _288  and  _290
REMARK  104  A    between atoms: _290  and  _291
REMARK  105  A    between atoms: _290  and  _293
REMARK  106  A    between atoms: _293  and  _294
REMARK  107  A    between atoms: _297  and  _299
REMARK  108  A    between atoms: _299  and  _300
REMARK  109  A    between atoms: _299  and  _302
REMARK  110  A    between atoms: _302  and  _303
REMARK  111  A    between atoms: _306  and  _308
REMARK  112  A    between atoms: _308  and  _309
REMARK  113  A    between atoms: _308  and  _311
REMARK  114  A    between atoms: _311  and  _312
REMARK  115  A    between atoms: _316  and  _317
REMARK  116  A    between atoms: _323  and  _324
REMARK  117  A    between atoms: _329  and  _331
REMARK  118  A    between atoms: _331  and  _332
REMARK  119  A    between atoms: _331  and  _334
REMARK  120  A    between atoms: _334  and  _335
REMARK  121  A    between atoms: _338  and  _340
REMARK  122  A    between atoms: _340  and  _341
REMARK  123  A    between atoms: _340  and  _343
REMARK  124  A    between atoms: _343  and  _344
REMARK  125  A    between atoms: _347  and  _349
REMARK  126  A    between atoms: _349  and  _350
REMARK  127  A    between atoms: _349  and  _352
REMARK  128  A    between atoms: _354  and  _356
REMARK  129  A    between atoms: _356  and  _357
REMARK  130  A    between atoms: _356  and  _359
REMARK  131  A    between atoms: _362  and  _364
REMARK  132  A    between atoms: _364  and  _365
REMARK  133  A    between atoms: _364  and  _367
REMARK  134  A    between atoms: _367  and  _368
REMARK  135  A    between atoms: _378  and  _380
REMARK  136  A    between atoms: _380  and  _381
REMARK  137  A    between atoms: _380  and  _383
REMARK  138  A    between atoms: _383  and  _384
REMARK  139  A    between atoms: _389  and  _391
REMARK  140  A    between atoms: _391  and  _392
REMARK  141  A    between atoms: _391  and  _394
REMARK  142  A    between atoms: _394  and  _395
REMARK  143  A    between atoms: _395  and  _396
REMARK  144  A    between atoms: _396  and  _397
REMARK                            x       y       z     vdW  Elec       q    Type
REMARK                         _______ _______ _______ _____ _____    ______ ____
ROOT
ATOM      1  C   UNK A   3       9.372  -1.581  15.591  0.00  0.00    +0.000 C 
ENDROOT
BRANCH   1   2
ATOM      2  C   UNK A   3       8.734  -0.415  14.889  0.00  0.00    +0.000 C 
ATOM      3  N   LEU A   4       7.720   0.165  15.553  0.00  0.00    +0.000 N 
ATOM      4  H   LEU A   4       7.358  -0.289  16.416  0.00  0.00    +0.000 HD
ATOM      5  O   UNK A   3       9.097  -0.039  13.739  0.00  0.00    +0.000 OA
BRANCH   3   6
ATOM      6  CA  LEU A   4       7.091   1.452  15.087  0.00  0.00    +0.000 C 
BRANCH   6   7
ATOM      7  C   LEU A   4       7.658   2.611  15.886  0.00  0.00    +0.000 C 
ATOM      8  O   LEU A   4       7.546   2.620  17.104  0.00  0.00    +0.000 OA
ATOM      9  N   VAL A   5       8.417   3.420  15.154  0.00  0.00    +0.000 N 
ATOM     10  H   VAL A   5       8.456   3.293  14.122  0.00  0.00    +0.000 HD
BRANCH   9  11
ATOM     11  CA  VAL A   5       9.211   4.503  15.790  0.00  0.00    +0.000 C 
BRANCH  11  12
ATOM     12  C   VAL A   5       8.489   5.822  15.798  0.00  0.00    +0.000 C 
ATOM     13  N   HIS A   6       8.457   6.429  16.982  0.00  0.00    +0.000 N 
ATOM     14  H   HIS A   6       8.929   5.989  17.798  0.00  0.00    +0.000 HD
ATOM     15  O   VAL A   5       7.975   6.255  14.761  0.00  0.00    +0.000 OA
BRANCH  13  16
ATOM     16  CA  HIS A   6       7.771   7.697  17.149  0.00  0.00    +0.000 C 
BRANCH  16  17
ATOM     17  C   HIS A   6       8.651   8.661  17.913  0.00  0.00    +0.000 C 
ATOM     18  O   HIS A   6       9.356   8.289  18.817  0.00  0.00    +0.000 OA
ATOM     19  N   TRP A   7       8.476   9.969  17.603  0.00  0.00    +0.000 N 
ATOM     20  H   TRP A   7       7.793  10.234  16.865  0.00  0.00    +0.000 HD
BRANCH  19  21
ATOM     21  CA  TRP A   7       9.258  11.046  18.314  0.00  0.00    +0.000 C 
BRANCH  21  22
ATOM     22  C   TRP A   7       8.378  11.992  19.064  0.00  0.00    +0.000 C 
ATOM     23  O   TRP A   7       7.238  12.298  18.648  0.00  0.00    +0.000 OA
ENDBRANCH  21  22
BRANCH  21  24
ATOM     24  CB  TRP A   7      10.226  11.770  17.387  0.00  0.00    +0.000 C 
BRANCH  24  25
ATOM     25  CG  TRP A   7       9.538  12.413  16.166  0.00  0.00    +0.000 A 
ATOM     26  CD2 TRP A   7       9.023  13.746  16.043  0.00  0.00    +0.000 A 
ATOM     27  CE3 TRP A   7       8.912  14.850  16.920  0.00  0.00    +0.000 A 
ATOM     28  CZ3 TRP A   7       8.270  16.008  16.431  0.00  0.00    +0.000 A 
ATOM     29  CH2 TRP A   7       7.762  16.090  15.132  0.00  0.00    +0.000 A 
ATOM     30  CZ2 TRP A   7       7.885  15.017  14.235  0.00  0.00    +0.000 A 
ATOM     31  CE2 TRP A   7       8.497  13.860  14.701  0.00  0.00    +0.000 A 
ATOM     32  NE1 TRP A   7       8.711  12.633  14.080  0.00  0.00    +0.000 N 
ATOM     33  HE1 TRP A   7       8.411  12.386  13.115  0.00  0.00    +0.000 HD
ATOM     34  CD1 TRP A   7       9.371  11.813  14.929  0.00  0.00    +0.000 A 
ENDBRANCH  24  25
ENDBRANCH  21  24
ENDBRANCH  19  21
ENDBRANCH  16  17
BRANCH  16  35
ATOM     35  CB  HIS A   6       6.427   7.541  17.987  0.00  0.00    +0.000 C 
BRANCH  35  36
ATOM     36  CG  HIS A   6       5.519   6.402  17.567  0.00  0.00    +0.000 A 
ATOM     37  ND1 HIS A   6       5.918   5.078  17.802  0.00  0.00    +0.000 NA
ATOM     38  CE1 HIS A   6       4.924   4.278  17.391  0.00  0.00    +0.000 A 
ATOM     39  NE2 HIS A   6       3.938   5.027  16.888  0.00  0.00    +0.000 NA
ATOM     40  CD2 HIS A   6       4.299   6.364  16.979  0.00  0.00    +0.000 A 
ENDBRANCH  35  36
ENDBRANCH  16  35
ENDBRANCH  13  16
ENDBRANCH  11  12
BRANCH  11  41
ATOM     41  CB  VAL A   5      10.509   4.647  15.000  0.00  0.00    +0.000 C 
ATOM     42  CG2 VAL A   5      11.386   5.792  15.624  0.00  0.00    +0.000 C 
ATOM     43  CG1 VAL A   5      11.327   3.309  14.916  0.00  0.00    +0.000 C 
ENDBRANCH  11  41
ENDBRANCH   9  11
ENDBRANCH   6   7
BRANCH   6  44
ATOM     44  CB  LEU A   4       5.535   1.335  15.259  0.00  0.00    +0.000 C 
BRANCH  44  45
ATOM     45  CG  LEU A   4       4.925   0.176  14.384  0.00  0.00    +0.000 C 
ATOM     46  CD2 LEU A   4       4.092  -0.739  15.251  0.00  0.00    +0.000 C 
ATOM     47  CD1 LEU A   4       4.000   0.860  13.328  0.00  0.00    +0.000 C 
ENDBRANCH  44  45
ENDBRANCH   6  44
ENDBRANCH   3   6
ENDBRANCH   1   2
BRANCH   1  48
ATOM     48  N   UNK A   3       9.092  -2.796  14.793  0.00  0.00    +0.000 N 
ATOM     49  C   LEU A   2       8.479  -3.837  15.290  0.00  0.00    +0.000 C 
ATOM     50  O   LEU A   2       8.084  -3.874  16.449  0.00  0.00    +0.000 OA
ATOM     51  H   UNK A   3       9.395  -2.822  13.798  0.00  0.00    +0.000 HD
BRANCH  49  52
ATOM     52  CA  LEU A   2       8.237  -4.969  14.318  0.00  0.00    +0.000 C 
BRANCH  52  53
ATOM     53  N   LEU A   2       8.590  -6.223  14.963  0.00  0.00    +0.000 N 
ATOM     54  H   LEU A   2       7.868  -6.693  15.545  0.00  0.00    +0.000 HD
ATOM     55  C   UNK A   1       9.766  -6.798  14.855  0.00  0.00    +0.000 C 
ATOM     56  O   UNK A   1      10.708  -6.397  14.115  0.00  0.00    +0.000 OA
BRANCH  55  57
ATOM     57  C   UNK A   1       9.937  -8.071  15.691  0.00  0.00    +0.000 C 
BRANCH  57  58
ATOM     58  N   UNK A   1      10.469  -9.129  14.768  0.00  0.00    +0.000 NA
ATOM     59  H   UNK A   1      11.085  -8.854  13.976  0.00  0.00    +0.000 HD
ENDBRANCH  57  58
BRANCH  57  60
ATOM     60  C   UNK A   1      10.934  -7.864  16.828  0.00  0.00    +0.000 C 
BRANCH  60  61
ATOM     61  C   UNK A   1      10.422  -6.909  17.939  0.00  0.00    +0.000 C 
BRANCH  61  62
ATOM     62  C   UNK A   1      11.350  -6.874  19.126  0.00  0.00    +0.000 C 
ATOM     63  O   UNK A   1      11.394  -5.753  19.727  0.00  0.00    +0.000 OA
ATOM     64  O   UNK A   1      11.978  -7.925  19.408  0.00  0.00    +0.000 OA
ENDBRANCH  61  62
ENDBRANCH  60  61
ENDBRANCH  57  60
ENDBRANCH  55  57
ENDBRANCH  52  53
BRANCH  52  65
ATOM     65  CB  LEU A   2       6.729  -5.060  13.952  0.00  0.00    +0.000 C 
BRANCH  65  66
ATOM     66  CG  LEU A   2       5.968  -3.731  13.608  0.00  0.00    +0.000 C 
ATOM     67  CD2 LEU A   2       4.506  -4.046  13.257  0.00  0.00    +0.000 C 
ATOM     68  CD1 LEU A   2       6.572  -3.144  12.355  0.00  0.00    +0.000 C 
ENDBRANCH  65  66
ENDBRANCH  52  65
ENDBRANCH  49  52
ENDBRANCH   1  48
BRANCH   1  69
ATOM     69  C   UNK A   3      10.893  -1.342  15.632  0.00  0.00    +0.000 C 
BRANCH  69  74
ATOM     70  N   UNK A   3      12.943  -2.534  16.528  0.00  0.00    +0.000 N 
ATOM     71  C   UNK A   3      13.248  -3.472  17.412  0.00  0.00    +0.000 A 
ATOM     72  N   UNK A   3      12.114  -3.890  17.969  0.00  0.00    +0.000 NA
ATOM     73  C   UNK A   3      11.049  -3.174  17.422  0.00  0.00    +0.000 A 
ATOM     74  C   UNK A   3      11.578  -2.317  16.522  0.00  0.00    +0.000 A 
BRANCH  70  88
ATOM     75  C   UNK A   1      10.824  -1.561  10.283  0.00  0.00    +0.000 C 
ATOM     76  C   UNK A   1      10.740  -2.821  11.113  0.00  0.00    +0.000 C 
ATOM     77  O   UNK A   1      10.081  -2.894  12.139  0.00  0.00    +0.000 OA
ATOM     78  N   LEU A   2      11.435  -3.863  10.654  0.00  0.00    +0.000 N 
ATOM     79  CA  LEU A   2      11.453  -5.132  11.308  0.00  0.00    +0.000 C 
ATOM     80  C   LEU A   2      12.904  -5.616  11.512  0.00  0.00    +0.000 C 
ATOM     81  N   UNK A   3      13.049  -6.519  12.466  0.00  0.00    +0.000 N 
ATOM     82  H   UNK A   3      12.268  -6.637  13.142  0.00  0.00    +0.000 HD
ATOM     83  C   UNK A   3      14.253  -7.380  12.641  0.00  0.00    +0.000 C 
ATOM     84  C   UNK A   3      14.934  -7.116  14.016  0.00  0.00    +0.000 C 
ATOM     85  C   UNK A   3      15.211  -5.678  14.293  0.00  0.00    +0.000 A 
ATOM     86  C   UNK A   3      14.416  -4.644  14.681  0.00  0.00    +0.000 A 
ATOM     87  N   UNK A   3      15.216  -3.509  14.749  0.00  0.00    +0.000 N 
ATOM     88 ZN   UNK A   3      14.546  -1.684  15.362  0.00  0.00    +0.000 Zn
ATOM     89  N   UNK A   1      13.629  -0.918  13.671  0.00  0.00    +0.000 N 
ATOM     90  C   UNK A   1      13.101   0.289  13.499  0.00  0.00    +0.000 A 
ATOM     91  N   UNK A   1      12.589   0.381  12.286  0.00  0.00    +0.000 NA
ATOM     92  C   UNK A   1      12.851  -0.790  11.618  0.00  0.00    +0.000 A 
ATOM     93  C   UNK A   1      13.496  -1.617  12.490  0.00  0.00    +0.000 A 
ATOM     94  C   UNK A   3      16.463  -3.897  14.477  0.00  0.00    +0.000 A 
ATOM     95  N   UNK A   3      16.473  -5.167  14.111  0.00  0.00    +0.000 NA
ATOM     96  O   LEU A   2      13.819  -5.147  10.794  0.00  0.00    +0.000 OA
ATOM     97  H   LEU A   2      11.988  -3.746   9.781  0.00  0.00    +0.000 HD
ATOM     98  C   UNK A   1      12.321  -1.057  10.245  0.00  0.00    +0.000 C 
BRANCH  75  99
ATOM     99  N   UNK A   1       9.913  -0.601  10.885  0.00  0.00    +0.000 NA
ATOM    100  H   UNK A   1       9.629  -0.724  11.878  0.00  0.00    +0.000 HD
ENDBRANCH  75  99
BRANCH  83 101
ATOM    101  C   UNK A   3      13.836  -8.817  12.533  0.00  0.00    +0.000 C 
ATOM    102  O   UNK A   3      12.756  -9.135  13.038  0.00  0.00    +0.000 OA
ENDBRANCH  83 101
BRANCH  79 103
ATOM    103  CB  LEU A   2      10.749  -6.255  10.495  0.00  0.00    +0.000 C 
BRANCH 103 104
ATOM    104  CG  LEU A   2       9.326  -5.955  10.148  0.00  0.00    +0.000 A 
ATOM    105  CD2 LEU A   2       8.310  -6.615  10.836  0.00  0.00    +0.000 A 
ATOM    106  CE2 LEU A   2       6.942  -6.411  10.464  0.00  0.00    +0.000 A 
ATOM    107  CZ  LEU A   2       6.638  -5.494   9.389  0.00  0.00    +0.000 A 
ATOM    108  CE1 LEU A   2       7.635  -4.911   8.685  0.00  0.00    +0.000 A 
ATOM    109  CD1 LEU A   2       8.977  -5.112   9.079  0.00  0.00    +0.000 A 
ENDBRANCH 103 104
ENDBRANCH  79 103
ENDBRANCH  70  88
ENDBRANCH  69  74
ENDBRANCH   1  69
TORSDOF 33
REMARK  Name = ../refined-set-2016/4q8y/4q8y_pocket.pdb
REMARK  144 active torsions:
REMARK  status: ('A' for Active; 'I' for Inactive)
REMARK    1  A    between atoms: _1  and  _3
REMARK    2  A    between atoms: _3  and  _4
REMARK    3  A    between atoms: _3  and  _6
REMARK    4  A    between atoms: _6  and  _7
REMARK    5  A    between atoms: _17  and  _19
REMARK    6  A    between atoms: _19  and  _20
REMARK    7  A    between atoms: _19  and  _22
REMARK    8  A    between atoms: _22  and  _23
REMARK    9  A    between atoms: _28  and  _29
REMARK   10  A    between atoms: _31  and  _33
REMARK   11  A    between atoms: _33  and  _34
REMARK   12  A    between atoms: _33  and  _36
REMARK   13  A    between atoms: _36  and  _37
REMARK   14  A    between atoms: _39  and  _41
REMARK   15  A    between atoms: _41  and  _42
REMARK   16  A    between atoms: _41  and  _44
REMARK   17  A    between atoms: _44  and  _45
REMARK   18  A    between atoms: _50  and  _52
REMARK   19  A    between atoms: _52  and  _53
REMARK   20  A    between atoms: _52  and  _55
REMARK   21  A    between atoms: _55  and  _56
REMARK   22  A    between atoms: _61  and  _63
REMARK   23  A    between atoms: _63  and  _64
REMARK   24  A    between atoms: _67  and  _69
REMARK   25  A    between atoms: _69  and  _70
REMARK   26  A    between atoms: _69  and  _72
REMARK   27  A    between atoms: _72  and  _73
REMARK   28  A    between atoms: _78  and  _80
REMARK   29  A    between atoms: _80  and  _81
REMARK   30  A    between atoms: _80  and  _83
REMARK   31  A    between atoms: _83  and  _84
REMARK   32  A    between atoms: _87  and  _89
REMARK   33  A    between atoms: _89  and  _90
REMARK   34  A    between atoms: _89  and  _92
REMARK   35  A    between atoms: _92  and  _93
REMARK   36  A    between atoms: _93  and  _94
REMARK   37  A    between atoms: _99  and  _101
REMARK   38  A    between atoms: _112  and  _115
REMARK   39  A    between atoms: _115  and  _116
REMARK   40  A    between atoms: _124  and  _125
REMARK   41  A    between atoms: _133  and  _135
REMARK   42  A    between atoms: _135  and  _136
REMARK   43  A    between atoms: _135  and  _138
REMARK   44  A    between atoms: _138  and  _139
REMARK   45  A    between atoms: _139  and  _140
REMARK   46  A    between atoms: _143  and  _145
REMARK   47  A    between atoms: _145  and  _146
REMARK   48  A    between atoms: _145  and  _148
REMARK   49  A    between atoms: _148  and  _149
REMARK   50  A    between atoms: _154  and  _156
REMARK   51  A    between atoms: _156  and  _157
REMARK   52  A    between atoms: _156  and  _159
REMARK   53  A    between atoms: _159  and  _160
REMARK   54  A    between atoms: _160  and  _161
REMARK   55  A    between atoms: _164  and  _166
REMARK   56  A    between atoms: _166  and  _167
REMARK   57  A    between atoms: _166  and  _169
REMARK   58  A    between atoms: _169  and  _170
REMARK   59  A    between atoms: _173  and  _175
REMARK   60  A    between atoms: _175  and  _176
REMARK   61  A    between atoms: _175  and  _178
REMARK   62  A    between atoms: _178  and  _179
REMARK   63  A    between atoms: _180  and  ZN_406
REMARK   64  A    between atoms: _184  and  _186
REMARK   65  A    between atoms: _186  and  _187
REMARK   66  A    between atoms: _186  and  _189
REMARK   67  A    between atoms: _189  and  _190
REMARK   68  A    between atoms: _193  and  _195
REMARK   69  A    between atoms: _195  and  _196
REMARK   70  A    between atoms: _195  and  _198
REMARK   71  A    between atoms: _201  and  _203
REMARK   72  A    between atoms: _203  and  _204
REMARK   73  A    between atoms: _203  and  _206
REMARK   74  A    between atoms: _206  and  _207
REMARK   75  A    between atoms: _212  and  _214
REMARK   76  A    between atoms: _214  and  _215
REMARK   77  A    between atoms: _214  and  _217
REMARK   78  A    between atoms: _217  and  _218
REMARK   79  A    between atoms: _228  and  _230
REMARK   80  A    between atoms: _230  and  _231
REMARK   81  A    between atoms: _230  and  _233
REMARK   82  A    between atoms: _233  and  _234
REMARK   83  A    between atoms: _240  and  _242
REMARK   84  A    between atoms: _242  and  _243
REMARK   85  A    between atoms: _242  and  _245
REMARK   86  A    between atoms: _248  and  _250
REMARK   87  A    between atoms: _250  and  _251
REMARK   88  A    between atoms: _250  and  _253
REMARK   89  A    between atoms: _253  and  _254
REMARK   90  A    between atoms: _257  and  _259
REMARK   91  A    between atoms: _259  and  _260
REMARK   92  A    between atoms: _263  and  _265
REMARK   93  A    between atoms: _265  and  _266
REMARK   94  A    between atoms: _265  and  _268
REMARK   95  A    between atoms: _271  and  _273
REMARK   96  A    between atoms: _273  and  _274
REMARK   97  A    between atoms: _273  and  _276
REMARK   98  A    between atoms: _276  and  _277
REMARK   99  A    between atoms: _280  and  _282
REMARK  100  A    between atoms: _282  and  _283
REMARK  101  A    between atoms: _282  and  _285
REMARK  102  A    between atoms: _285  and  _286
REMARK  103  A    between atoms: _288  and  _290
REMARK  104  A    between atoms: _290  and  _291
REMARK  105  A    between atoms: _290  and  _293
REMARK  106  A    between atoms: _293  and  _294
REMARK  107  A    between atoms: _297  and  _299
REMARK  108  A    between atoms: _299  and  _300
REMARK  109  A    between atoms: _299  and  _302
REMARK  110  A    between atoms: _302  and  _303
REMARK  111  A    between atoms: _306  and  _308
REMARK  112  A    between atoms: _308  and  _309
REMARK  113  A    between atoms: _308  and  _311
REMARK  114  A    between atoms: _311  and  _312
REMARK  115  A    between atoms: _316  and  _317
REMARK  116  A    between atoms: _323  and  _324
REMARK  117  A    between atoms: _329  and  _331
REMARK  118  A    between atoms: _331  and  _332
REMARK  119  A    between atoms: _331  and  _334
REMARK  120  A    between atoms: _334  and  _335
REMARK  121  A    between atoms: _338  and  _340
REMARK  122  A    between atoms: _340  and  _341
REMARK  123  A    between atoms: _340  and  _343
REMARK  124  A    between atoms: _343  and  _344
REMARK  125  A    between atoms: _347  and  _349
REMARK  126  A    between atoms: _349  and  _350
REMARK  127  A    between atoms: _349  and  _352
REMARK  128  A    between atoms: _354  and  _356
REMARK  129  A    between atoms: _356  and  _357
REMARK  130  A    between atoms: _356  and  _359
REMARK  131  A    between atoms: _362  and  _364
REMARK  132  A    between atoms: _364  and  _365
REMARK  133  A    between atoms: _364  and  _367
REMARK  134  A    between atoms: _367  and  _368
REMARK  135  A    between atoms: _378  and  _380
REMARK  136  A    between atoms: _380  and  _381
REMARK  137  A    between atoms: _380  and  _383
REMARK  138  A    between atoms: _383  and  _384
REMARK  139  A    between atoms: _389  and  _391
REMARK  140  A    between atoms: _391  and  _392
REMARK  141  A    between atoms: _391  and  _394
REMARK  142  A    between atoms: _394  and  _395
REMARK  143  A    between atoms: _395  and  _396
REMARK  144  A    between atoms: _396  and  _397
REMARK                            x       y       z     vdW  Elec       q    Type
REMARK                         _______ _______ _______ _____ _____    ______ ____
ROOT
ATOM      1  C   GLU A   1      15.063  -8.717  21.057  0.00  0.00    +0.238 C 
ATOM      2  O   GLU A   1      15.837  -9.314  21.826  0.00  0.00    -0.274 OA
ATOM      3  N   HIS A   2      13.860  -8.233  21.482  0.00  0.00    -0.298 N 
ATOM      4  H   HIS A   2      13.268  -7.629  20.877  0.00  0.00    +0.150 HD
ENDROOT
BRANCH   1   5
ATOM      5  CA  GLU A   1      15.449  -8.614  19.605  0.00  0.00    +0.145 C 
BRANCH   5   6
ATOM      6  N   GLU A   1      14.394  -9.258  18.751  0.00  0.00    -0.238 NA
ATOM      7  H   GLU A   1      13.542  -8.723  18.486  0.00  0.00    +0.142 HD
ENDBRANCH   5   6
BRANCH   5   8
ATOM      8  CB  GLU A   1      15.511  -7.130  19.157  0.00  0.00    +0.038 C 
BRANCH   8   9
ATOM      9  CG  GLU A   1      16.094  -7.058  17.684  0.00  0.00    +0.116 C 
BRANCH   9  10
ATOM     10  CD  GLU A   1      16.732  -5.770  17.393  0.00  0.00    +0.365 C 
ATOM     11  OE2 GLU A   1      16.030  -4.745  17.555  0.00  0.00    -0.246 OA
ATOM     12  OE1 GLU A   1      17.886  -5.775  16.915  0.00  0.00    -0.246 OA
ENDBRANCH   9  10
ENDBRANCH   8   9
ENDBRANCH   5   8
ENDBRANCH   1   5
BRANCH   3  13
ATOM     13  CA  HIS A   2      13.454  -8.602  22.811  0.00  0.00    +0.143 C 
BRANCH  13  14
ATOM     14  C   HIS A   2      13.125 -10.061  22.827  0.00  0.00    +0.227 C 
ATOM     15  O   HIS A   2      12.742 -10.664  21.782  0.00  0.00    -0.286 OA
ENDBRANCH  13  14
BRANCH  13  16
ATOM     16  CB  HIS A   2      12.209  -7.773  23.169  0.00  0.00    +0.075 C 
BRANCH  16  17
ATOM     17  CG  HIS A   2      12.539  -6.288  23.292  0.00  0.00    +0.082 A 
ATOM     18  CD2 HIS A   2      13.036  -5.569  24.347  0.00  0.00    +0.115 A 
ATOM     19  NE2 HIS A   2      13.252  -4.275  23.917  0.00  0.00    -0.221 NA
ATOM     20  CE1 HIS A   2      12.913  -4.207  22.643  0.00  0.00    +0.199 A 
ATOM     21  ND1 HIS A   2      12.498  -5.419  22.230  0.00  0.00    -0.227 NA
ENDBRANCH  16  17
ENDBRANCH  13  16
ENDBRANCH   3  13
TORSDOF 9
REMARK  Name = ../refined-set-2016/4q8y/4q8y_pocket.pdb
REMARK  144 active torsions:
REMARK  status: ('A' for Active; 'I' for Inactive)
REMARK    1  A    between atoms: _1  and  _3
REMARK    2  A    between atoms: _3  and  _4
REMARK    3  A    between atoms: _3  and  _6
REMARK    4  A    between atoms: _6  and  _7
REMARK    5  A    between atoms: _17  and  _19
REMARK    6  A    between atoms: _19  and  _20
REMARK    7  A    between atoms: _19  and  _22
REMARK    8  A    between atoms: _22  and  _23
REMARK    9  A    between atoms: _28  and  _29
REMARK   10  A    between atoms: _31  and  _33
REMARK   11  A    between atoms: _33  and  _34
REMARK   12  A    between atoms: _33  and  _36
REMARK   13  A    between atoms: _36  and  _37
REMARK   14  A    between atoms: _39  and  _41
REMARK   15  A    between atoms: _41  and  _42
REMARK   16  A    between atoms: _41  and  _44
REMARK   17  A    between atoms: _44  and  _45
REMARK   18  A    between atoms: _50  and  _52
REMARK   19  A    between atoms: _52  and  _53
REMARK   20  A    between atoms: _52  and  _55
REMARK   21  A    between atoms: _55  and  _56
REMARK   22  A    between atoms: _61  and  _63
REMARK   23  A    between atoms: _63  and  _64
REMARK   24  A    between atoms: _67  and  _69
REMARK   25  A    between atoms: _69  and  _70
REMARK   26  A    between atoms: _69  and  _72
REMARK   27  A    between atoms: _72  and  _73
REMARK   28  A    between atoms: _78  and  _80
REMARK   29  A    between atoms: _80  and  _81
REMARK   30  A    between atoms: _80  and  _83
REMARK   31  A    between atoms: _83  and  _84
REMARK   32  A    between atoms: _87  and  _89
REMARK   33  A    between atoms: _89  and  _90
REMARK   34  A    between atoms: _89  and  _92
REMARK   35  A    between atoms: _92  and  _93
REMARK   36  A    between atoms: _93  and  _94
REMARK   37  A    between atoms: _99  and  _101
REMARK   38  A    between atoms: _112  and  _115
REMARK   39  A    between atoms: _115  and  _116
REMARK   40  A    between atoms: _124  and  _125
REMARK   41  A    between atoms: _133  and  _135
REMARK   42  A    between atoms: _135  and  _136
REMARK   43  A    between atoms: _135  and  _138
REMARK   44  A    between atoms: _138  and  _139
REMARK   45  A    between atoms: _139  and  _140
REMARK   46  A    between atoms: _143  and  _145
REMARK   47  A    between atoms: _145  and  _146
REMARK   48  A    between atoms: _145  and  _148
REMARK   49  A    between atoms: _148  and  _149
REMARK   50  A    between atoms: _154  and  _156
REMARK   51  A    between atoms: _156  and  _157
REMARK   52  A    between atoms: _156  and  _159
REMARK   53  A    between atoms: _159  and  _160
REMARK   54  A    between atoms: _160  and  _161
REMARK   55  A    between atoms: _164  and  _166
REMARK   56  A    between atoms: _166  and  _167
REMARK   57  A    between atoms: _166  and  _169
REMARK   58  A    between atoms: _169  and  _170
REMARK   59  A    between atoms: _173  and  _175
REMARK   60  A    between atoms: _175  and  _176
REMARK   61  A    between atoms: _175  and  _178
REMARK   62  A    between atoms: _178  and  _179
REMARK   63  A    between atoms: _180  and  ZN_406
REMARK   64  A    between atoms: _184  and  _186
REMARK   65  A    between atoms: _186  and  _187
REMARK   66  A    between atoms: _186  and  _189
REMARK   67  A    between atoms: _189  and  _190
REMARK   68  A    between atoms: _193  and  _195
REMARK   69  A    between atoms: _195  and  _196
REMARK   70  A    between atoms: _195  and  _198
REMARK   71  A    between atoms: _201  and  _203
REMARK   72  A    between atoms: _203  and  _204
REMARK   73  A    between atoms: _203  and  _206
REMARK   74  A    between atoms: _206  and  _207
REMARK   75  A    between atoms: _212  and  _214
REMARK   76  A    between atoms: _214  and  _215
REMARK   77  A    between atoms: _214  and  _217
REMARK   78  A    between atoms: _217  and  _218
REMARK   79  A    between atoms: _228  and  _230
REMARK   80  A    between atoms: _230  and  _231
REMARK   81  A    between atoms: _230  and  _233
REMARK   82  A    between atoms: _233  and  _234
REMARK   83  A    between atoms: _240  and  _242
REMARK   84  A    between atoms: _242  and  _243
REMARK   85  A    between atoms: _242  and  _245
REMARK   86  A    between atoms: _248  and  _250
REMARK   87  A    between atoms: _250  and  _251
REMARK   88  A    between atoms: _250  and  _253
REMARK   89  A    between atoms: _253  and  _254
REMARK   90  A    between atoms: _257  and  _259
REMARK   91  A    between atoms: _259  and  _260
REMARK   92  A    between atoms: _263  and  _265
REMARK   93  A    between atoms: _265  and  _266
REMARK   94  A    between atoms: _265  and  _268
REMARK   95  A    between atoms: _271  and  _273
REMARK   96  A    between atoms: _273  and  _274
REMARK   97  A    between atoms: _273  and  _276
REMARK   98  A    between atoms: _276  and  _277
REMARK   99  A    between atoms: _280  and  _282
REMARK  100  A    between atoms: _282  and  _283
REMARK  101  A    between atoms: _282  and  _285
REMARK  102  A    between atoms: _285  and  _286
REMARK  103  A    between atoms: _288  and  _290
REMARK  104  A    between atoms: _290  and  _291
REMARK  105  A    between atoms: _290  and  _293
REMARK  106  A    between atoms: _293  and  _294
REMARK  107  A    between atoms: _297  and  _299
REMARK  108  A    between atoms: _299  and  _300
REMARK  109  A    between atoms: _299  and  _302
REMARK  110  A    between atoms: _302  and  _303
REMARK  111  A    between atoms: _306  and  _308
REMARK  112  A    between atoms: _308  and  _309
REMARK  113  A    between atoms: _308  and  _311
REMARK  114  A    between atoms: _311  and  _312
REMARK  115  A    between atoms: _316  and  _317
REMARK  116  A    between atoms: _323  and  _324
REMARK  117  A    between atoms: _329  and  _331
REMARK  118  A    between atoms: _331  and  _332
REMARK  119  A    between atoms: _331  and  _334
REMARK  120  A    between atoms: _334  and  _335
REMARK  121  A    between atoms: _338  and  _340
REMARK  122  A    between atoms: _340  and  _341
REMARK  123  A    between atoms: _340  and  _343
REMARK  124  A    between atoms: _343  and  _344
REMARK  125  A    between atoms: _347  and  _349
REMARK  126  A    between atoms: _349  and  _350
REMARK  127  A    between atoms: _349  and  _352
REMARK  128  A    between atoms: _354  and  _356
REMARK  129  A    between atoms: _356  and  _357
REMARK  130  A    between atoms: _356  and  _359
REMARK  131  A    between atoms: _362  and  _364
REMARK  132  A    between atoms: _364  and  _365
REMARK  133  A    between atoms: _364  and  _367
REMARK  134  A    between atoms: _367  and  _368
REMARK  135  A    between atoms: _378  and  _380
REMARK  136  A    between atoms: _380  and  _381
REMARK  137  A    between atoms: _380  and  _383
REMARK  138  A    between atoms: _383  and  _384
REMARK  139  A    between atoms: _389  and  _391
REMARK  140  A    between atoms: _391  and  _392
REMARK  141  A    between atoms: _391  and  _394
REMARK  142  A    between atoms: _394  and  _395
REMARK  143  A    between atoms: _395  and  _396
REMARK  144  A    between atoms: _396  and  _397
REMARK                            x       y       z     vdW  Elec       q    Type
REMARK                         _______ _______ _______ _____ _____    ______ ____
ROOT
ATOM      1  CB  PHE A   1      13.041  12.606  13.863  0.00  0.00    +0.051 C 
ENDROOT
BRANCH   1   2
ATOM      2  CG  PHE A   1      13.795  11.296  14.098  0.00  0.00    -0.020 A 
ATOM      3  CD2 PHE A   1      13.196  10.270  14.839  0.00  0.00    -0.004 A 
ATOM      4  CE2 PHE A   1      13.859   9.095  15.046  0.00  0.00    -0.000 A 
ATOM      5  CZ  PHE A   1      15.156   8.940  14.673  0.00  0.00    -0.000 A 
ATOM      6  CE1 PHE A   1      15.842   9.991  13.997  0.00  0.00    -0.000 A 
ATOM      7  CD1 PHE A   1      15.144  11.175  13.733  0.00  0.00    -0.004 A 
ENDBRANCH   1   2
BRANCH   1   8
ATOM      8  CA  PHE A   1      13.163  13.639  15.033  0.00  0.00    +0.137 C 
BRANCH   8   9
ATOM      9  N   PHE A   1      12.479  14.846  14.663  0.00  0.00    -0.239 NA
ATOM     10  H   PHE A   1      12.117  14.941  13.693  0.00  0.00    +0.142 HD
ENDBRANCH   8   9
BRANCH   8  11
ATOM     11  C   PHE A   1      14.582  13.895  15.409  0.00  0.00    +0.224 C 
ATOM     12  O   PHE A   1      15.086  13.327  16.388  0.00  0.00    -0.287 OA
ENDBRANCH   8  11
ENDBRANCH   1   8
TORSDOF 4
REMARK  Name = ../refined-set-2016/4q8y/4q8y_pocket.pdb
REMARK  144 active torsions:
REMARK  status: ('A' for Active; 'I' for Inactive)
REMARK    1  A    between atoms: _1  and  _3
REMARK    2  A    between atoms: _3  and  _4
REMARK    3  A    between atoms: _3  and  _6
REMARK    4  A    between atoms: _6  and  _7
REMARK    5  A    between atoms: _17  and  _19
REMARK    6  A    between atoms: _19  and  _20
REMARK    7  A    between atoms: _19  and  _22
REMARK    8  A    between atoms: _22  and  _23
REMARK    9  A    between atoms: _28  and  _29
REMARK   10  A    between atoms: _31  and  _33
REMARK   11  A    between atoms: _33  and  _34
REMARK   12  A    between atoms: _33  and  _36
REMARK   13  A    between atoms: _36  and  _37
REMARK   14  A    between atoms: _39  and  _41
REMARK   15  A    between atoms: _41  and  _42
REMARK   16  A    between atoms: _41  and  _44
REMARK   17  A    between atoms: _44  and  _45
REMARK   18  A    between atoms: _50  and  _52
REMARK   19  A    between atoms: _52  and  _53
REMARK   20  A    between atoms: _52  and  _55
REMARK   21  A    between atoms: _55  and  _56
REMARK   22  A    between atoms: _61  and  _63
REMARK   23  A    between atoms: _63  and  _64
REMARK   24  A    between atoms: _67  and  _69
REMARK   25  A    between atoms: _69  and  _70
REMARK   26  A    between atoms: _69  and  _72
REMARK   27  A    between atoms: _72  and  _73
REMARK   28  A    between atoms: _78  and  _80
REMARK   29  A    between atoms: _80  and  _81
REMARK   30  A    between atoms: _80  and  _83
REMARK   31  A    between atoms: _83  and  _84
REMARK   32  A    between atoms: _87  and  _89
REMARK   33  A    between atoms: _89  and  _90
REMARK   34  A    between atoms: _89  and  _92
REMARK   35  A    between atoms: _92  and  _93
REMARK   36  A    between atoms: _93  and  _94
REMARK   37  A    between atoms: _99  and  _101
REMARK   38  A    between atoms: _112  and  _115
REMARK   39  A    between atoms: _115  and  _116
REMARK   40  A    between atoms: _124  and  _125
REMARK   41  A    between atoms: _133  and  _135
REMARK   42  A    between atoms: _135  and  _136
REMARK   43  A    between atoms: _135  and  _138
REMARK   44  A    between atoms: _138  and  _139
REMARK   45  A    between atoms: _139  and  _140
REMARK   46  A    between atoms: _143  and  _145
REMARK   47  A    between atoms: _145  and  _146
REMARK   48  A    between atoms: _145  and  _148
REMARK   49  A    between atoms: _148  and  _149
REMARK   50  A    between atoms: _154  and  _156
REMARK   51  A    between atoms: _156  and  _157
REMARK   52  A    between atoms: _156  and  _159
REMARK   53  A    between atoms: _159  and  _160
REMARK   54  A    between atoms: _160  and  _161
REMARK   55  A    between atoms: _164  and  _166
REMARK   56  A    between atoms: _166  and  _167
REMARK   57  A    between atoms: _166  and  _169
REMARK   58  A    between atoms: _169  and  _170
REMARK   59  A    between atoms: _173  and  _175
REMARK   60  A    between atoms: _175  and  _176
REMARK   61  A    between atoms: _175  and  _178
REMARK   62  A    between atoms: _178  and  _179
REMARK   63  A    between atoms: _180  and  ZN_406
REMARK   64  A    between atoms: _184  and  _186
REMARK   65  A    between atoms: _186  and  _187
REMARK   66  A    between atoms: _186  and  _189
REMARK   67  A    between atoms: _189  and  _190
REMARK   68  A    between atoms: _193  and  _195
REMARK   69  A    between atoms: _195  and  _196
REMARK   70  A    between atoms: _195  and  _198
REMARK   71  A    between atoms: _201  and  _203
REMARK   72  A    between atoms: _203  and  _204
REMARK   73  A    between atoms: _203  and  _206
REMARK   74  A    between atoms: _206  and  _207
REMARK   75  A    between atoms: _212  and  _214
REMARK   76  A    between atoms: _214  and  _215
REMARK   77  A    between atoms: _214  and  _217
REMARK   78  A    between atoms: _217  and  _218
REMARK   79  A    between atoms: _228  and  _230
REMARK   80  A    between atoms: _230  and  _231
REMARK   81  A    between atoms: _230  and  _233
REMARK   82  A    between atoms: _233  and  _234
REMARK   83  A    between atoms: _240  and  _242
REMARK   84  A    between atoms: _242  and  _243
REMARK   85  A    between atoms: _242  and  _245
REMARK   86  A    between atoms: _248  and  _250
REMARK   87  A    between atoms: _250  and  _251
REMARK   88  A    between atoms: _250  and  _253
REMARK   89  A    between atoms: _253  and  _254
REMARK   90  A    between atoms: _257  and  _259
REMARK   91  A    between atoms: _259  and  _260
REMARK   92  A    between atoms: _263  and  _265
REMARK   93  A    between atoms: _265  and  _266
REMARK   94  A    between atoms: _265  and  _268
REMARK   95  A    between atoms: _271  and  _273
REMARK   96  A    between atoms: _273  and  _274
REMARK   97  A    between atoms: _273  and  _276
REMARK   98  A    between atoms: _276  and  _277
REMARK   99  A    between atoms: _280  and  _282
REMARK  100  A    between atoms: _282  and  _283
REMARK  101  A    between atoms: _282  and  _285
REMARK  102  A    between atoms: _285  and  _286
REMARK  103  A    between atoms: _288  and  _290
REMARK  104  A    between atoms: _290  and  _291
REMARK  105  A    between atoms: _290  and  _293
REMARK  106  A    between atoms: _293  and  _294
REMARK  107  A    between atoms: _297  and  _299
REMARK  108  A    between atoms: _299  and  _300
REMARK  109  A    between atoms: _299  and  _302
REMARK  110  A    between atoms: _302  and  _303
REMARK  111  A    between atoms: _306  and  _308
REMARK  112  A    between atoms: _308  and  _309
REMARK  113  A    between atoms: _308  and  _311
REMARK  114  A    between atoms: _311  and  _312
REMARK  115  A    between atoms: _316  and  _317
REMARK  116  A    between atoms: _323  and  _324
REMARK  117  A    between atoms: _329  and  _331
REMARK  118  A    between atoms: _331  and  _332
REMARK  119  A    between atoms: _331  and  _334
REMARK  120  A    between atoms: _334  and  _335
REMARK  121  A    between atoms: _338  and  _340
REMARK  122  A    between atoms: _340  and  _341
REMARK  123  A    between atoms: _340  and  _343
REMARK  124  A    between atoms: _343  and  _344
REMARK  125  A    between atoms: _347  and  _349
REMARK  126  A    between atoms: _349  and  _350
REMARK  127  A    between atoms: _349  and  _352
REMARK  128  A    between atoms: _354  and  _356
REMARK  129  A    between atoms: _356  and  _357
REMARK  130  A    between atoms: _356  and  _359
REMARK  131  A    between atoms: _362  and  _364
REMARK  132  A    between atoms: _364  and  _365
REMARK  133  A    between atoms: _364  and  _367
REMARK  134  A    between atoms: _367  and  _368
REMARK  135  A    between atoms: _378  and  _380
REMARK  136  A    between atoms: _380  and  _381
REMARK  137  A    between atoms: _380  and  _383
REMARK  138  A    between atoms: _383  and  _384
REMARK  139  A    between atoms: _389  and  _391
REMARK  140  A    between atoms: _391  and  _392
REMARK  141  A    between atoms: _391  and  _394
REMARK  142  A    between atoms: _394  and  _395
REMARK  143  A    between atoms: _395  and  _396
REMARK  144  A    between atoms: _396  and  _397
REMARK                            x       y       z     vdW  Elec       q    Type
REMARK                         _______ _______ _______ _____ _____    ______ ____
ROOT
ATOM      1  CA  VAL A   1      17.252  11.817  19.546  0.00  0.00    +0.133 C 
ENDROOT
BRANCH   1   2
ATOM      2  CB  VAL A   1      17.747  11.025  18.273  0.00  0.00    +0.023 C 
ATOM      3  CG2 VAL A   1      16.549  10.432  17.594  0.00  0.00    +0.002 C 
ATOM      4  CG1 VAL A   1      18.520  11.956  17.369  0.00  0.00    +0.002 C 
ENDBRANCH   1   2
BRANCH   1   5
ATOM      5  N   VAL A   1      16.176  12.831  19.197  0.00  0.00    -0.239 NA
ATOM      6  H   VAL A   1      16.103  13.204  18.229  0.00  0.00    +0.142 HD
ENDBRANCH   1   5
BRANCH   1   7
ATOM      7  C   VAL A   1      18.409  12.414  20.335  0.00  0.00    +0.224 C 
ATOM      8  O   VAL A   1      19.280  11.686  20.781  0.00  0.00    -0.287 OA
ENDBRANCH   1   7
TORSDOF 3
REMARK  Name = ../refined-set-2016/4q8y/4q8y_pocket.pdb
REMARK  144 active torsions:
REMARK  status: ('A' for Active; 'I' for Inactive)
REMARK    1  A    between atoms: _1  and  _3
REMARK    2  A    between atoms: _3  and  _4
REMARK    3  A    between atoms: _3  and  _6
REMARK    4  A    between atoms: _6  and  _7
REMARK    5  A    between atoms: _17  and  _19
REMARK    6  A    between atoms: _19  and  _20
REMARK    7  A    between atoms: _19  and  _22
REMARK    8  A    between atoms: _22  and  _23
REMARK    9  A    between atoms: _28  and  _29
REMARK   10  A    between atoms: _31  and  _33
REMARK   11  A    between atoms: _33  and  _34
REMARK   12  A    between atoms: _33  and  _36
REMARK   13  A    between atoms: _36  and  _37
REMARK   14  A    between atoms: _39  and  _41
REMARK   15  A    between atoms: _41  and  _42
REMARK   16  A    between atoms: _41  and  _44
REMARK   17  A    between atoms: _44  and  _45
REMARK   18  A    between atoms: _50  and  _52
REMARK   19  A    between atoms: _52  and  _53
REMARK   20  A    between atoms: _52  and  _55
REMARK   21  A    between atoms: _55  and  _56
REMARK   22  A    between atoms: _61  and  _63
REMARK   23  A    between atoms: _63  and  _64
REMARK   24  A    between atoms: _67  and  _69
REMARK   25  A    between atoms: _69  and  _70
REMARK   26  A    between atoms: _69  and  _72
REMARK   27  A    between atoms: _72  and  _73
REMARK   28  A    between atoms: _78  and  _80
REMARK   29  A    between atoms: _80  and  _81
REMARK   30  A    between atoms: _80  and  _83
REMARK   31  A    between atoms: _83  and  _84
REMARK   32  A    between atoms: _87  and  _89
REMARK   33  A    between atoms: _89  and  _90
REMARK   34  A    between atoms: _89  and  _92
REMARK   35  A    between atoms: _92  and  _93
REMARK   36  A    between atoms: _93  and  _94
REMARK   37  A    between atoms: _99  and  _101
REMARK   38  A    between atoms: _112  and  _115
REMARK   39  A    between atoms: _115  and  _116
REMARK   40  A    between atoms: _124  and  _125
REMARK   41  A    between atoms: _133  and  _135
REMARK   42  A    between atoms: _135  and  _136
REMARK   43  A    between atoms: _135  and  _138
REMARK   44  A    between atoms: _138  and  _139
REMARK   45  A    between atoms: _139  and  _140
REMARK   46  A    between atoms: _143  and  _145
REMARK   47  A    between atoms: _145  and  _146
REMARK   48  A    between atoms: _145  and  _148
REMARK   49  A    between atoms: _148  and  _149
REMARK   50  A    between atoms: _154  and  _156
REMARK   51  A    between atoms: _156  and  _157
REMARK   52  A    between atoms: _156  and  _159
REMARK   53  A    between atoms: _159  and  _160
REMARK   54  A    between atoms: _160  and  _161
REMARK   55  A    between atoms: _164  and  _166
REMARK   56  A    between atoms: _166  and  _167
REMARK   57  A    between atoms: _166  and  _169
REMARK   58  A    between atoms: _169  and  _170
REMARK   59  A    between atoms: _173  and  _175
REMARK   60  A    between atoms: _175  and  _176
REMARK   61  A    between atoms: _175  and  _178
REMARK   62  A    between atoms: _178  and  _179
REMARK   63  A    between atoms: _180  and  ZN_406
REMARK   64  A    between atoms: _184  and  _186
REMARK   65  A    between atoms: _186  and  _187
REMARK   66  A    between atoms: _186  and  _189
REMARK   67  A    between atoms: _189  and  _190
REMARK   68  A    between atoms: _193  and  _195
REMARK   69  A    between atoms: _195  and  _196
REMARK   70  A    between atoms: _195  and  _198
REMARK   71  A    between atoms: _201  and  _203
REMARK   72  A    between atoms: _203  and  _204
REMARK   73  A    between atoms: _203  and  _206
REMARK   74  A    between atoms: _206  and  _207
REMARK   75  A    between atoms: _212  and  _214
REMARK   76  A    between atoms: _214  and  _215
REMARK   77  A    between atoms: _214  and  _217
REMARK   78  A    between atoms: _217  and  _218
REMARK   79  A    between atoms: _228  and  _230
REMARK   80  A    between atoms: _230  and  _231
REMARK   81  A    between atoms: _230  and  _233
REMARK   82  A    between atoms: _233  and  _234
REMARK   83  A    between atoms: _240  and  _242
REMARK   84  A    between atoms: _242  and  _243
REMARK   85  A    between atoms: _242  and  _245
REMARK   86  A    between atoms: _248  and  _250
REMARK   87  A    between atoms: _250  and  _251
REMARK   88  A    between atoms: _250  and  _253
REMARK   89  A    between atoms: _253  and  _254
REMARK   90  A    between atoms: _257  and  _259
REMARK   91  A    between atoms: _259  and  _260
REMARK   92  A    between atoms: _263  and  _265
REMARK   93  A    between atoms: _265  and  _266
REMARK   94  A    between atoms: _265  and  _268
REMARK   95  A    between atoms: _271  and  _273
REMARK   96  A    between atoms: _273  and  _274
REMARK   97  A    between atoms: _273  and  _276
REMARK   98  A    between atoms: _276  and  _277
REMARK   99  A    between atoms: _280  and  _282
REMARK  100  A    between atoms: _282  and  _283
REMARK  101  A    between atoms: _282  and  _285
REMARK  102  A    between atoms: _285  and  _286
REMARK  103  A    between atoms: _288  and  _290
REMARK  104  A    between atoms: _290  and  _291
REMARK  105  A    between atoms: _290  and  _293
REMARK  106  A    between atoms: _293  and  _294
REMARK  107  A    between atoms: _297  and  _299
REMARK  108  A    between atoms: _299  and  _300
REMARK  109  A    between atoms: _299  and  _302
REMARK  110  A    between atoms: _302  and  _303
REMARK  111  A    between atoms: _306  and  _308
REMARK  112  A    between atoms: _308  and  _309
REMARK  113  A    between atoms: _308  and  _311
REMARK  114  A    between atoms: _311  and  _312
REMARK  115  A    between atoms: _316  and  _317
REMARK  116  A    between atoms: _323  and  _324
REMARK  117  A    between atoms: _329  and  _331
REMARK  118  A    between atoms: _331  and  _332
REMARK  119  A    between atoms: _331  and  _334
REMARK  120  A    between atoms: _334  and  _335
REMARK  121  A    between atoms: _338  and  _340
REMARK  122  A    between atoms: _340  and  _341
REMARK  123  A    between atoms: _340  and  _343
REMARK  124  A    between atoms: _343  and  _344
REMARK  125  A    between atoms: _347  and  _349
REMARK  126  A    between atoms: _349  and  _350
REMARK  127  A    between atoms: _349  and  _352
REMARK  128  A    between atoms: _354  and  _356
REMARK  129  A    between atoms: _356  and  _357
REMARK  130  A    between atoms: _356  and  _359
REMARK  131  A    between atoms: _362  and  _364
REMARK  132  A    between atoms: _364  and  _365
REMARK  133  A    between atoms: _364  and  _367
REMARK  134  A    between atoms: _367  and  _368
REMARK  135  A    between atoms: _378  and  _380
REMARK  136  A    between atoms: _380  and  _381
REMARK  137  A    between atoms: _380  and  _383
REMARK  138  A    between atoms: _383  and  _384
REMARK  139  A    between atoms: _389  and  _391
REMARK  140  A    between atoms: _391  and  _392
REMARK  141  A    between atoms: _391  and  _394
REMARK  142  A    between atoms: _394  and  _395
REMARK  143  A    between atoms: _395  and  _396
REMARK  144  A    between atoms: _396  and  _397
REMARK                            x       y       z     vdW  Elec       q    Type
REMARK                         _______ _______ _______ _____ _____    ______ ____
ROOT
ATOM      1  C   ALA A   2       8.705   4.856  20.735  0.00  0.00    +0.241 C 
ATOM      2  N   VAL A   3       9.140   3.604  21.054  0.00  0.00    -0.297 N 
ATOM      3  H   VAL A   3       9.517   3.392  22.000  0.00  0.00    +0.150 HD
ATOM      4  O   ALA A   2       8.411   5.207  19.590  0.00  0.00    -0.273 OA
ENDROOT
BRANCH   1   5
ATOM      5  CA  ALA A   2       8.805   5.843  21.850  0.00  0.00    +0.149 C 
ATOM      6  CB  ALA A   2       7.393   6.315  22.268  0.00  0.00    +0.031 C 
BRANCH   5   9
ATOM      7  C   LEU A   1      10.540   7.555  22.120  0.00  0.00    +0.238 C 
ATOM      8  O   LEU A   1      10.778   7.262  23.251  0.00  0.00    -0.274 OA
ATOM      9  N   ALA A   2       9.559   7.014  21.367  0.00  0.00    -0.297 N 
ATOM     10  H   ALA A   2       9.333   7.426  20.439  0.00  0.00    +0.150 HD
BRANCH   7  11
ATOM     11  CA  LEU A   1      11.443   8.531  21.332  0.00  0.00    +0.145 C 
BRANCH  11  12
ATOM     12  N   LEU A   1      12.061   9.499  22.224  0.00  0.00    -0.238 NA
ATOM     13  H   LEU A   1      12.600   9.183  23.055  0.00  0.00    +0.142 HD
ENDBRANCH  11  12
BRANCH  11  14
ATOM     14  CB  LEU A   1      12.512   7.709  20.571  0.00  0.00    +0.026 C 
BRANCH  14  15
ATOM     15  CG  LEU A   1      13.458   8.590  19.763  0.00  0.00    +0.002 C 
ATOM     16  CD2 LEU A   1      14.455   7.595  19.073  0.00  0.00    +0.000 C 
ATOM     17  CD1 LEU A   1      12.768   9.409  18.616  0.00  0.00    +0.000 C 
ENDBRANCH  14  15
ENDBRANCH  11  14
ENDBRANCH   7  11
ENDBRANCH   5   9
ENDBRANCH   1   5
BRANCH   2  18
ATOM     18  CA  VAL A   3       9.059   2.562  20.018  0.00  0.00    +0.149 C 
BRANCH  18  19
ATOM     19  C   VAL A   3       8.055   1.512  20.513  0.00  0.00    +0.241 C 
ATOM     20  O   VAL A   3       8.168   0.983  21.643  0.00  0.00    -0.273 OA
ATOM     21  N   LEU A   4       7.072   1.286  19.676  0.00  0.00    -0.298 N 
ATOM     22  H   LEU A   4       6.988   1.887  18.831  0.00  0.00    +0.150 HD
BRANCH  21  23
ATOM     23  CA  LEU A   4       6.094   0.229  19.880  0.00  0.00    +0.137 C 
BRANCH  23  24
ATOM     24  C   LEU A   4       6.668  -1.051  19.227  0.00  0.00    +0.227 C 
ATOM     25  O   LEU A   4       6.857  -1.099  18.018  0.00  0.00    -0.286 OA
ENDBRANCH  23  24
BRANCH  23  26
ATOM     26  CB  LEU A   4       4.711   0.624  19.271  0.00  0.00    +0.028 C 
BRANCH  26  27
ATOM     27  CG  LEU A   4       3.626  -0.359  19.467  0.00  0.00    +0.002 C 
ATOM     28  CD2 LEU A   4       3.273  -0.650  20.907  0.00  0.00    +0.000 C 
ATOM     29  CD1 LEU A   4       2.374   0.243  18.762  0.00  0.00    +0.000 C 
ENDBRANCH  26  27
ENDBRANCH  23  26
ENDBRANCH  21  23
ENDBRANCH  18  19
BRANCH  18  30
ATOM     30  CB  VAL A   3      10.419   1.954  19.691  0.00  0.00    +0.027 C 
ATOM     31  CG2 VAL A   3      11.403   2.986  19.252  0.00  0.00    +0.002 C 
ATOM     32  CG1 VAL A   3      10.269   0.876  18.582  0.00  0.00    +0.002 C 
ENDBRANCH  18  30
ENDBRANCH   2  18
TORSDOF 13
REMARK  Name = ../refined-set-2016/4q8y/4q8y_pocket.pdb
REMARK  144 active torsions:
REMARK  status: ('A' for Active; 'I' for Inactive)
REMARK    1  A    between atoms: _1  and  _3
REMARK    2  A    between atoms: _3  and  _4
REMARK    3  A    between atoms: _3  and  _6
REMARK    4  A    between atoms: _6  and  _7
REMARK    5  A    between atoms: _17  and  _19
REMARK    6  A    between atoms: _19  and  _20
REMARK    7  A    between atoms: _19  and  _22
REMARK    8  A    between atoms: _22  and  _23
REMARK    9  A    between atoms: _28  and  _29
REMARK   10  A    between atoms: _31  and  _33
REMARK   11  A    between atoms: _33  and  _34
REMARK   12  A    between atoms: _33  and  _36
REMARK   13  A    between atoms: _36  and  _37
REMARK   14  A    between atoms: _39  and  _41
REMARK   15  A    between atoms: _41  and  _42
REMARK   16  A    between atoms: _41  and  _44
REMARK   17  A    between atoms: _44  and  _45
REMARK   18  A    between atoms: _50  and  _52
REMARK   19  A    between atoms: _52  and  _53
REMARK   20  A    between atoms: _52  and  _55
REMARK   21  A    between atoms: _55  and  _56
REMARK   22  A    between atoms: _61  and  _63
REMARK   23  A    between atoms: _63  and  _64
REMARK   24  A    between atoms: _67  and  _69
REMARK   25  A    between atoms: _69  and  _70
REMARK   26  A    between atoms: _69  and  _72
REMARK   27  A    between atoms: _72  and  _73
REMARK   28  A    between atoms: _78  and  _80
REMARK   29  A    between atoms: _80  and  _81
REMARK   30  A    between atoms: _80  and  _83
REMARK   31  A    between atoms: _83  and  _84
REMARK   32  A    between atoms: _87  and  _89
REMARK   33  A    between atoms: _89  and  _90
REMARK   34  A    between atoms: _89  and  _92
REMARK   35  A    between atoms: _92  and  _93
REMARK   36  A    between atoms: _93  and  _94
REMARK   37  A    between atoms: _99  and  _101
REMARK   38  A    between atoms: _112  and  _115
REMARK   39  A    between atoms: _115  and  _116
REMARK   40  A    between atoms: _124  and  _125
REMARK   41  A    between atoms: _133  and  _135
REMARK   42  A    between atoms: _135  and  _136
REMARK   43  A    between atoms: _135  and  _138
REMARK   44  A    between atoms: _138  and  _139
REMARK   45  A    between atoms: _139  and  _140
REMARK   46  A    between atoms: _143  and  _145
REMARK   47  A    between atoms: _145  and  _146
REMARK   48  A    between atoms: _145  and  _148
REMARK   49  A    between atoms: _148  and  _149
REMARK   50  A    between atoms: _154  and  _156
REMARK   51  A    between atoms: _156  and  _157
REMARK   52  A    between atoms: _156  and  _159
REMARK   53  A    between atoms: _159  and  _160
REMARK   54  A    between atoms: _160  and  _161
REMARK   55  A    between atoms: _164  and  _166
REMARK   56  A    between atoms: _166  and  _167
REMARK   57  A    between atoms: _166  and  _169
REMARK   58  A    between atoms: _169  and  _170
REMARK   59  A    between atoms: _173  and  _175
REMARK   60  A    between atoms: _175  and  _176
REMARK   61  A    between atoms: _175  and  _178
REMARK   62  A    between atoms: _178  and  _179
REMARK   63  A    between atoms: _180  and  ZN_406
REMARK   64  A    between atoms: _184  and  _186
REMARK   65  A    between atoms: _186  and  _187
REMARK   66  A    between atoms: _186  and  _189
REMARK   67  A    between atoms: _189  and  _190
REMARK   68  A    between atoms: _193  and  _195
REMARK   69  A    between atoms: _195  and  _196
REMARK   70  A    between atoms: _195  and  _198
REMARK   71  A    between atoms: _201  and  _203
REMARK   72  A    between atoms: _203  and  _204
REMARK   73  A    between atoms: _203  and  _206
REMARK   74  A    between atoms: _206  and  _207
REMARK   75  A    between atoms: _212  and  _214
REMARK   76  A    between atoms: _214  and  _215
REMARK   77  A    between atoms: _214  and  _217
REMARK   78  A    between atoms: _217  and  _218
REMARK   79  A    between atoms: _228  and  _230
REMARK   80  A    between atoms: _230  and  _231
REMARK   81  A    between atoms: _230  and  _233
REMARK   82  A    between atoms: _233  and  _234
REMARK   83  A    between atoms: _240  and  _242
REMARK   84  A    between atoms: _242  and  _243
REMARK   85  A    between atoms: _242  and  _245
REMARK   86  A    between atoms: _248  and  _250
REMARK   87  A    between atoms: _250  and  _251
REMARK   88  A    between atoms: _250  and  _253
REMARK   89  A    between atoms: _253  and  _254
REMARK   90  A    between atoms: _257  and  _259
REMARK   91  A    between atoms: _259  and  _260
REMARK   92  A    between atoms: _263  and  _265
REMARK   93  A    between atoms: _265  and  _266
REMARK   94  A    between atoms: _265  and  _268
REMARK   95  A    between atoms: _271  and  _273
REMARK   96  A    between atoms: _273  and  _274
REMARK   97  A    between atoms: _273  and  _276
REMARK   98  A    between atoms: _276  and  _277
REMARK   99  A    between atoms: _280  and  _282
REMARK  100  A    between atoms: _282  and  _283
REMARK  101  A    between atoms: _282  and  _285
REMARK  102  A    between atoms: _285  and  _286
REMARK  103  A    between atoms: _288  and  _290
REMARK  104  A    between atoms: _290  and  _291
REMARK  105  A    between atoms: _290  and  _293
REMARK  106  A    between atoms: _293  and  _294
REMARK  107  A    between atoms: _297  and  _299
REMARK  108  A    between atoms: _299  and  _300
REMARK  109  A    between atoms: _299  and  _302
REMARK  110  A    between atoms: _302  and  _303
REMARK  111  A    between atoms: _306  and  _308
REMARK  112  A    between atoms: _308  and  _309
REMARK  113  A    between atoms: _308  and  _311
REMARK  114  A    between atoms: _311  and  _312
REMARK  115  A    between atoms: _316  and  _317
REMARK  116  A    between atoms: _323  and  _324
REMARK  117  A    between atoms: _329  and  _331
REMARK  118  A    between atoms: _331  and  _332
REMARK  119  A    between atoms: _331  and  _334
REMARK  120  A    between atoms: _334  and  _335
REMARK  121  A    between atoms: _338  and  _340
REMARK  122  A    between atoms: _340  and  _341
REMARK  123  A    between atoms: _340  and  _343
REMARK  124  A    between atoms: _343  and  _344
REMARK  125  A    between atoms: _347  and  _349
REMARK  126  A    between atoms: _349  and  _350
REMARK  127  A    between atoms: _349  and  _352
REMARK  128  A    between atoms: _354  and  _356
REMARK  129  A    between atoms: _356  and  _357
REMARK  130  A    between atoms: _356  and  _359
REMARK  131  A    between atoms: _362  and  _364
REMARK  132  A    between atoms: _364  and  _365
REMARK  133  A    between atoms: _364  and  _367
REMARK  134  A    between atoms: _367  and  _368
REMARK  135  A    between atoms: _378  and  _380
REMARK  136  A    between atoms: _380  and  _381
REMARK  137  A    between atoms: _380  and  _383
REMARK  138  A    between atoms: _383  and  _384
REMARK  139  A    between atoms: _389  and  _391
REMARK  140  A    between atoms: _391  and  _392
REMARK  141  A    between atoms: _391  and  _394
REMARK  142  A    between atoms: _394  and  _395
REMARK  143  A    between atoms: _395  and  _396
REMARK  144  A    between atoms: _396  and  _397
REMARK                            x       y       z     vdW  Elec       q    Type
REMARK                         _______ _______ _______ _____ _____    ______ ____
ROOT
ATOM      1  C   THR A   4      21.979   0.914  16.173  0.00  0.00    +0.246 C 
ATOM      2  O   THR A   4      21.472   1.875  16.743  0.00  0.00    -0.273 OA
ATOM      3  N   PRO A   5      23.266   0.877  15.754  0.00  0.00    -0.272 N 
ATOM      4  CA  PRO A   5      23.988   2.142  15.814  0.00  0.00    +0.152 C 
ATOM      5  CB  PRO A   5      25.231   1.822  14.983  0.00  0.00    +0.031 C 
ATOM      6  CG  PRO A   5      25.452   0.358  15.232  0.00  0.00    +0.024 C 
ATOM      7  CD  PRO A   5      24.051  -0.269  15.215  0.00  0.00    +0.094 C 
ENDROOT
BRANCH   4   8
ATOM      8  C   PRO A   5      23.146   3.316  15.275  0.00  0.00    +0.244 C 
ATOM      9  N   PRO A   6      23.150   4.501  15.876  0.00  0.00    -0.272 N 
ATOM     10  CA  PRO A   6      24.084   4.907  16.919  0.00  0.00    +0.152 C 
ATOM     11  CB  PRO A   6      24.116   6.445  16.749  0.00  0.00    +0.031 C 
ATOM     12  CG  PRO A   6      22.757   6.763  16.174  0.00  0.00    +0.024 C 
ATOM     13  CD  PRO A   6      22.432   5.629  15.262  0.00  0.00    +0.094 C 
ATOM     14  O   PRO A   5      22.535   3.168  14.147  0.00  0.00    -0.273 OA
BRANCH  10  15
ATOM     15  C   PRO A   6      23.670   4.560  18.372  0.00  0.00    +0.241 C 
ATOM     16  O   PRO A   6      24.300   5.007  19.355  0.00  0.00    -0.273 OA
ATOM     17  N   LEU A   7      22.690   3.607  18.506  0.00  0.00    -0.297 N 
ATOM     18  H   LEU A   7      22.148   3.269  17.685  0.00  0.00    +0.150 HD
BRANCH  17  19
ATOM     19  CA  LEU A   7      22.437   3.080  19.869  0.00  0.00    +0.149 C 
BRANCH  19  20
ATOM     20  C   LEU A   7      22.042   4.109  20.965  0.00  0.00    +0.241 C 
ATOM     21  O   LEU A   7      22.186   3.846  22.144  0.00  0.00    -0.273 OA
ATOM     22  N   LEU A   8      21.400   5.177  20.462  0.00  0.00    -0.298 N 
ATOM     23  H   LEU A   8      21.108   5.203  19.464  0.00  0.00    +0.150 HD
BRANCH  22  24
ATOM     24  CA  LEU A   8      21.119   6.319  21.368  0.00  0.00    +0.137 C 
BRANCH  24  25
ATOM     25  C   LEU A   8      20.070   5.928  22.431  0.00  0.00    +0.227 C 
ATOM     26  O   LEU A   8      19.066   5.287  22.162  0.00  0.00    -0.286 OA
ENDBRANCH  24  25
BRANCH  24  27
ATOM     27  CB  LEU A   8      20.655   7.517  20.545  0.00  0.00    +0.028 C 
BRANCH  27  28
ATOM     28  CG  LEU A   8      21.707   8.044  19.527  0.00  0.00    +0.002 C 
ATOM     29  CD2 LEU A   8      22.888   8.663  20.242  0.00  0.00    +0.000 C 
ATOM     30  CD1 LEU A   8      20.999   9.043  18.557  0.00  0.00    +0.000 C 
ENDBRANCH  27  28
ENDBRANCH  24  27
ENDBRANCH  22  24
ENDBRANCH  19  20
BRANCH  19  31
ATOM     31  CB  LEU A   7      23.554   2.159  20.384  0.00  0.00    +0.029 C 
BRANCH  31  32
ATOM     32  CG  LEU A   7      23.911   1.018  19.420  0.00  0.00    +0.002 C 
ATOM     33  CD2 LEU A   7      25.270   0.352  19.774  0.00  0.00    +0.000 C 
ATOM     34  CD1 LEU A   7      22.805  -0.046  19.336  0.00  0.00    +0.000 C 
ENDBRANCH  31  32
ENDBRANCH  19  31
ENDBRANCH  17  19
ENDBRANCH  10  15
ENDBRANCH   4   8
BRANCH   1  35
ATOM     35  CA  THR A   4      21.143  -0.290  15.929  0.00  0.00    +0.176 C 
BRANCH  35  38
ATOM     36  C   THR A   3      20.004  -1.503  17.751  0.00  0.00    +0.243 C 
ATOM     37  O   THR A   3      20.650  -2.529  17.562  0.00  0.00    -0.273 OA
ATOM     38  N   THR A   4      20.117  -0.403  16.979  0.00  0.00    -0.295 N 
ATOM     39  H   THR A   4      19.460   0.389  17.130  0.00  0.00    +0.150 HD
BRANCH  36  40
ATOM     40  CA  THR A   3      19.003  -1.371  18.907  0.00  0.00    +0.176 C 
BRANCH  40  43
ATOM     41  C   LEU A   2      18.620   0.864  19.652  0.00  0.00    +0.241 C 
ATOM     42  O   LEU A   2      19.663   0.729  20.385  0.00  0.00    -0.273 OA
ATOM     43  N   THR A   3      18.244  -0.106  18.848  0.00  0.00    -0.295 N 
ATOM     44  H   THR A   3      17.443   0.013  18.196  0.00  0.00    +0.150 HD
BRANCH  41  45
ATOM     45  CA  LEU A   2      17.910   2.229  19.555  0.00  0.00    +0.149 C 
BRANCH  45  48
ATOM     46  C   SER A   1      17.386   2.200  21.916  0.00  0.00    +0.241 C 
ATOM     47  O   SER A   1      16.632   1.162  21.781  0.00  0.00    -0.274 OA
ATOM     48  N   LEU A   2      17.880   2.851  20.880  0.00  0.00    -0.297 N 
ATOM     49  H   LEU A   2      18.251   3.814  21.006  0.00  0.00    +0.150 HD
BRANCH  46  50
ATOM     50  CA  SER A   1      17.845   2.655  23.323  0.00  0.00    +0.174 C 
BRANCH  50  51
ATOM     51  N   SER A   1      17.046   2.003  24.363  0.00  0.00    -0.236 NA
ATOM     52  H   SER A   1      16.794   1.000  24.256  0.00  0.00    +0.142 HD
ENDBRANCH  50  51
BRANCH  50  53
ATOM     53  CB  SER A   1      19.341   2.253  23.459  0.00  0.00    +0.163 C 
BRANCH  53  54
ATOM     54  OG  SER A   1      19.565   0.877  23.137  0.00  0.00    -0.380 OA
ATOM     55  H   SER A   1      19.285   0.708  22.202  0.00  0.00    +0.211 HD
ENDBRANCH  53  54
ENDBRANCH  50  53
ENDBRANCH  46  50
ENDBRANCH  45  48
BRANCH  45  56
ATOM     56  CB  LEU A   2      18.722   3.082  18.594  0.00  0.00    +0.029 C 
BRANCH  56  57
ATOM     57  CG  LEU A   2      18.002   4.223  17.894  0.00  0.00    +0.002 C 
ATOM     58  CD2 LEU A   2      17.474   5.261  18.916  0.00  0.00    +0.000 C 
ATOM     59  CD1 LEU A   2      18.995   4.963  16.922  0.00  0.00    +0.000 C 
ENDBRANCH  56  57
ENDBRANCH  45  56
ENDBRANCH  41  45
ENDBRANCH  40  43
BRANCH  40  60
ATOM     60  CB  THR A   3      18.024  -2.517  18.775  0.00  0.00    +0.137 C 
ATOM     61  CG2 THR A   3      16.968  -2.433  19.870  0.00  0.00    +0.034 C 
BRANCH  60  62
ATOM     62  OG1 THR A   3      17.379  -2.409  17.499  0.00  0.00    -0.382 OA
ATOM     63  HG1 THR A   3      16.733  -3.152  17.393  0.00  0.00    +0.210 HD
ENDBRANCH  60  62
ENDBRANCH  40  60
ENDBRANCH  36  40
ENDBRANCH  35  38
BRANCH  35  64
ATOM     64  CB  THR A   4      20.505  -0.172  14.543  0.00  0.00    +0.137 C 
ATOM     65  CG2 THR A   4      19.929  -1.438  14.133  0.00  0.00    +0.034 C 
BRANCH  64  66
ATOM     66  OG1 THR A   4      19.406   0.756  14.636  0.00  0.00    -0.382 OA
ATOM     67  HG1 THR A   4      19.744   1.638  14.933  0.00  0.00    +0.210 HD
ENDBRANCH  64  66
ENDBRANCH  35  64
ENDBRANCH   1  35
TORSDOF 26
REMARK  Name = ../refined-set-2016/4q8y/4q8y_pocket.pdb
REMARK  144 active torsions:
REMARK  status: ('A' for Active; 'I' for Inactive)
REMARK    1  A    between atoms: _1  and  _3
REMARK    2  A    between atoms: _3  and  _4
REMARK    3  A    between atoms: _3  and  _6
REMARK    4  A    between atoms: _6  and  _7
REMARK    5  A    between atoms: _17  and  _19
REMARK    6  A    between atoms: _19  and  _20
REMARK    7  A    between atoms: _19  and  _22
REMARK    8  A    between atoms: _22  and  _23
REMARK    9  A    between atoms: _28  and  _29
REMARK   10  A    between atoms: _31  and  _33
REMARK   11  A    between atoms: _33  and  _34
REMARK   12  A    between atoms: _33  and  _36
REMARK   13  A    between atoms: _36  and  _37
REMARK   14  A    between atoms: _39  and  _41
REMARK   15  A    between atoms: _41  and  _42
REMARK   16  A    between atoms: _41  and  _44
REMARK   17  A    between atoms: _44  and  _45
REMARK   18  A    between atoms: _50  and  _52
REMARK   19  A    between atoms: _52  and  _53
REMARK   20  A    between atoms: _52  and  _55
REMARK   21  A    between atoms: _55  and  _56
REMARK   22  A    between atoms: _61  and  _63
REMARK   23  A    between atoms: _63  and  _64
REMARK   24  A    between atoms: _67  and  _69
REMARK   25  A    between atoms: _69  and  _70
REMARK   26  A    between atoms: _69  and  _72
REMARK   27  A    between atoms: _72  and  _73
REMARK   28  A    between atoms: _78  and  _80
REMARK   29  A    between atoms: _80  and  _81
REMARK   30  A    between atoms: _80  and  _83
REMARK   31  A    between atoms: _83  and  _84
REMARK   32  A    between atoms: _87  and  _89
REMARK   33  A    between atoms: _89  and  _90
REMARK   34  A    between atoms: _89  and  _92
REMARK   35  A    between atoms: _92  and  _93
REMARK   36  A    between atoms: _93  and  _94
REMARK   37  A    between atoms: _99  and  _101
REMARK   38  A    between atoms: _112  and  _115
REMARK   39  A    between atoms: _115  and  _116
REMARK   40  A    between atoms: _124  and  _125
REMARK   41  A    between atoms: _133  and  _135
REMARK   42  A    between atoms: _135  and  _136
REMARK   43  A    between atoms: _135  and  _138
REMARK   44  A    between atoms: _138  and  _139
REMARK   45  A    between atoms: _139  and  _140
REMARK   46  A    between atoms: _143  and  _145
REMARK   47  A    between atoms: _145  and  _146
REMARK   48  A    between atoms: _145  and  _148
REMARK   49  A    between atoms: _148  and  _149
REMARK   50  A    between atoms: _154  and  _156
REMARK   51  A    between atoms: _156  and  _157
REMARK   52  A    between atoms: _156  and  _159
REMARK   53  A    between atoms: _159  and  _160
REMARK   54  A    between atoms: _160  and  _161
REMARK   55  A    between atoms: _164  and  _166
REMARK   56  A    between atoms: _166  and  _167
REMARK   57  A    between atoms: _166  and  _169
REMARK   58  A    between atoms: _169  and  _170
REMARK   59  A    between atoms: _173  and  _175
REMARK   60  A    between atoms: _175  and  _176
REMARK   61  A    between atoms: _175  and  _178
REMARK   62  A    between atoms: _178  and  _179
REMARK   63  A    between atoms: _180  and  ZN_406
REMARK   64  A    between atoms: _184  and  _186
REMARK   65  A    between atoms: _186  and  _187
REMARK   66  A    between atoms: _186  and  _189
REMARK   67  A    between atoms: _189  and  _190
REMARK   68  A    between atoms: _193  and  _195
REMARK   69  A    between atoms: _195  and  _196
REMARK   70  A    between atoms: _195  and  _198
REMARK   71  A    between atoms: _201  and  _203
REMARK   72  A    between atoms: _203  and  _204
REMARK   73  A    between atoms: _203  and  _206
REMARK   74  A    between atoms: _206  and  _207
REMARK   75  A    between atoms: _212  and  _214
REMARK   76  A    between atoms: _214  and  _215
REMARK   77  A    between atoms: _214  and  _217
REMARK   78  A    between atoms: _217  and  _218
REMARK   79  A    between atoms: _228  and  _230
REMARK   80  A    between atoms: _230  and  _231
REMARK   81  A    between atoms: _230  and  _233
REMARK   82  A    between atoms: _233  and  _234
REMARK   83  A    between atoms: _240  and  _242
REMARK   84  A    between atoms: _242  and  _243
REMARK   85  A    between atoms: _242  and  _245
REMARK   86  A    between atoms: _248  and  _250
REMARK   87  A    between atoms: _250  and  _251
REMARK   88  A    between atoms: _250  and  _253
REMARK   89  A    between atoms: _253  and  _254
REMARK   90  A    between atoms: _257  and  _259
REMARK   91  A    between atoms: _259  and  _260
REMARK   92  A    between atoms: _263  and  _265
REMARK   93  A    between atoms: _265  and  _266
REMARK   94  A    between atoms: _265  and  _268
REMARK   95  A    between atoms: _271  and  _273
REMARK   96  A    between atoms: _273  and  _274
REMARK   97  A    between atoms: _273  and  _276
REMARK   98  A    between atoms: _276  and  _277
REMARK   99  A    between atoms: _280  and  _282
REMARK  100  A    between atoms: _282  and  _283
REMARK  101  A    between atoms: _282  and  _285
REMARK  102  A    between atoms: _285  and  _286
REMARK  103  A    between atoms: _288  and  _290
REMARK  104  A    between atoms: _290  and  _291
REMARK  105  A    between atoms: _290  and  _293
REMARK  106  A    between atoms: _293  and  _294
REMARK  107  A    between atoms: _297  and  _299
REMARK  108  A    between atoms: _299  and  _300
REMARK  109  A    between atoms: _299  and  _302
REMARK  110  A    between atoms: _302  and  _303
REMARK  111  A    between atoms: _306  and  _308
REMARK  112  A    between atoms: _308  and  _309
REMARK  113  A    between atoms: _308  and  _311
REMARK  114  A    between atoms: _311  and  _312
REMARK  115  A    between atoms: _316  and  _317
REMARK  116  A    between atoms: _323  and  _324
REMARK  117  A    between atoms: _329  and  _331
REMARK  118  A    between atoms: _331  and  _332
REMARK  119  A    between atoms: _331  and  _334
REMARK  120  A    between atoms: _334  and  _335
REMARK  121  A    between atoms: _338  and  _340
REMARK  122  A    between atoms: _340  and  _341
REMARK  123  A    between atoms: _340  and  _343
REMARK  124  A    between atoms: _343  and  _344
REMARK  125  A    between atoms: _347  and  _349
REMARK  126  A    between atoms: _349  and  _350
REMARK  127  A    between atoms: _349  and  _352
REMARK  128  A    between atoms: _354  and  _356
REMARK  129  A    between atoms: _356  and  _357
REMARK  130  A    between atoms: _356  and  _359
REMARK  131  A    between atoms: _362  and  _364
REMARK  132  A    between atoms: _364  and  _365
REMARK  133  A    between atoms: _364  and  _367
REMARK  134  A    between atoms: _367  and  _368
REMARK  135  A    between atoms: _378  and  _380
REMARK  136  A    between atoms: _380  and  _381
REMARK  137  A    between atoms: _380  and  _383
REMARK  138  A    between atoms: _383  and  _384
REMARK  139  A    between atoms: _389  and  _391
REMARK  140  A    between atoms: _391  and  _392
REMARK  141  A    between atoms: _391  and  _394
REMARK  142  A    between atoms: _394  and  _395
REMARK  143  A    between atoms: _395  and  _396
REMARK  144  A    between atoms: _396  and  _397
REMARK                            x       y       z     vdW  Elec       q    Type
REMARK                         _______ _______ _______ _____ _____    ______ ____
ROOT
ATOM      1  C   CYS A   1      14.932   7.345  24.014  0.00  0.00    +0.239 C 
ATOM      2  N   VAL A   2      14.883   6.037  24.130  0.00  0.00    -0.298 N 
ATOM      3  H   VAL A   2      15.713   5.509  24.467  0.00  0.00    +0.150 HD
ATOM      4  O   CYS A   1      13.954   8.072  23.900  0.00  0.00    -0.274 OA
ENDROOT
BRANCH   1   5
ATOM      5  CA  CYS A   1      16.274   7.965  23.917  0.00  0.00    +0.156 C 
BRANCH   5   6
ATOM      6  N   CYS A   1      17.371   7.031  24.013  0.00  0.00    -0.237 NA
ATOM      7  H   CYS A   1      17.429   6.262  23.315  0.00  0.00    +0.142 HD
ENDBRANCH   5   6
BRANCH   5   8
ATOM      8  CB  CYS A   1      16.218   8.609  22.499  0.00  0.00    +0.095 C 
ATOM      9  SG  CYS A   1      17.698   9.050  21.719  0.00  0.00    -0.080 S 
ENDBRANCH   5   8
ENDBRANCH   1   5
BRANCH   2  10
ATOM     10  CA  VAL A   2      13.620   5.311  23.772  0.00  0.00    +0.137 C 
BRANCH  10  11
ATOM     11  CB  VAL A   2      13.947   4.028  23.030  0.00  0.00    +0.026 C 
ATOM     12  CG2 VAL A   2      12.629   3.380  22.641  0.00  0.00    +0.002 C 
ATOM     13  CG1 VAL A   2      14.615   4.391  21.676  0.00  0.00    +0.002 C 
ENDBRANCH  10  11
BRANCH  10  14
ATOM     14  C   VAL A   2      12.873   4.882  25.041  0.00  0.00    +0.227 C 
ATOM     15  O   VAL A   2      13.389   4.179  25.886  0.00  0.00    -0.286 OA
ENDBRANCH  10  14
ENDBRANCH   2  10
TORSDOF 6
REMARK  Name = ../refined-set-2016/4q8y/4q8y_pocket.pdb
REMARK  144 active torsions:
REMARK  status: ('A' for Active; 'I' for Inactive)
REMARK    1  A    between atoms: _1  and  _3
REMARK    2  A    between atoms: _3  and  _4
REMARK    3  A    between atoms: _3  and  _6
REMARK    4  A    between atoms: _6  and  _7
REMARK    5  A    between atoms: _17  and  _19
REMARK    6  A    between atoms: _19  and  _20
REMARK    7  A    between atoms: _19  and  _22
REMARK    8  A    between atoms: _22  and  _23
REMARK    9  A    between atoms: _28  and  _29
REMARK   10  A    between atoms: _31  and  _33
REMARK   11  A    between atoms: _33  and  _34
REMARK   12  A    between atoms: _33  and  _36
REMARK   13  A    between atoms: _36  and  _37
REMARK   14  A    between atoms: _39  and  _41
REMARK   15  A    between atoms: _41  and  _42
REMARK   16  A    between atoms: _41  and  _44
REMARK   17  A    between atoms: _44  and  _45
REMARK   18  A    between atoms: _50  and  _52
REMARK   19  A    between atoms: _52  and  _53
REMARK   20  A    between atoms: _52  and  _55
REMARK   21  A    between atoms: _55  and  _56
REMARK   22  A    between atoms: _61  and  _63
REMARK   23  A    between atoms: _63  and  _64
REMARK   24  A    between atoms: _67  and  _69
REMARK   25  A    between atoms: _69  and  _70
REMARK   26  A    between atoms: _69  and  _72
REMARK   27  A    between atoms: _72  and  _73
REMARK   28  A    between atoms: _78  and  _80
REMARK   29  A    between atoms: _80  and  _81
REMARK   30  A    between atoms: _80  and  _83
REMARK   31  A    between atoms: _83  and  _84
REMARK   32  A    between atoms: _87  and  _89
REMARK   33  A    between atoms: _89  and  _90
REMARK   34  A    between atoms: _89  and  _92
REMARK   35  A    between atoms: _92  and  _93
REMARK   36  A    between atoms: _93  and  _94
REMARK   37  A    between atoms: _99  and  _101
REMARK   38  A    between atoms: _112  and  _115
REMARK   39  A    between atoms: _115  and  _116
REMARK   40  A    between atoms: _124  and  _125
REMARK   41  A    between atoms: _133  and  _135
REMARK   42  A    between atoms: _135  and  _136
REMARK   43  A    between atoms: _135  and  _138
REMARK   44  A    between atoms: _138  and  _139
REMARK   45  A    between atoms: _139  and  _140
REMARK   46  A    between atoms: _143  and  _145
REMARK   47  A    between atoms: _145  and  _146
REMARK   48  A    between atoms: _145  and  _148
REMARK   49  A    between atoms: _148  and  _149
REMARK   50  A    between atoms: _154  and  _156
REMARK   51  A    between atoms: _156  and  _157
REMARK   52  A    between atoms: _156  and  _159
REMARK   53  A    between atoms: _159  and  _160
REMARK   54  A    between atoms: _160  and  _161
REMARK   55  A    between atoms: _164  and  _166
REMARK   56  A    between atoms: _166  and  _167
REMARK   57  A    between atoms: _166  and  _169
REMARK   58  A    between atoms: _169  and  _170
REMARK   59  A    between atoms: _173  and  _175
REMARK   60  A    between atoms: _175  and  _176
REMARK   61  A    between atoms: _175  and  _178
REMARK   62  A    between atoms: _178  and  _179
REMARK   63  A    between atoms: _180  and  ZN_406
REMARK   64  A    between atoms: _184  and  _186
REMARK   65  A    between atoms: _186  and  _187
REMARK   66  A    between atoms: _186  and  _189
REMARK   67  A    between atoms: _189  and  _190
REMARK   68  A    between atoms: _193  and  _195
REMARK   69  A    between atoms: _195  and  _196
REMARK   70  A    between atoms: _195  and  _198
REMARK   71  A    between atoms: _201  and  _203
REMARK   72  A    between atoms: _203  and  _204
REMARK   73  A    between atoms: _203  and  _206
REMARK   74  A    between atoms: _206  and  _207
REMARK   75  A    between atoms: _212  and  _214
REMARK   76  A    between atoms: _214  and  _215
REMARK   77  A    between atoms: _214  and  _217
REMARK   78  A    between atoms: _217  and  _218
REMARK   79  A    between atoms: _228  and  _230
REMARK   80  A    between atoms: _230  and  _231
REMARK   81  A    between atoms: _230  and  _233
REMARK   82  A    between atoms: _233  and  _234
REMARK   83  A    between atoms: _240  and  _242
REMARK   84  A    between atoms: _242  and  _243
REMARK   85  A    between atoms: _242  and  _245
REMARK   86  A    between atoms: _248  and  _250
REMARK   87  A    between atoms: _250  and  _251
REMARK   88  A    between atoms: _250  and  _253
REMARK   89  A    between atoms: _253  and  _254
REMARK   90  A    between atoms: _257  and  _259
REMARK   91  A    between atoms: _259  and  _260
REMARK   92  A    between atoms: _263  and  _265
REMARK   93  A    between atoms: _265  and  _266
REMARK   94  A    between atoms: _265  and  _268
REMARK   95  A    between atoms: _271  and  _273
REMARK   96  A    between atoms: _273  and  _274
REMARK   97  A    between atoms: _273  and  _276
REMARK   98  A    between atoms: _276  and  _277
REMARK   99  A    between atoms: _280  and  _282
REMARK  100  A    between atoms: _282  and  _283
REMARK  101  A    between atoms: _282  and  _285
REMARK  102  A    between atoms: _285  and  _286
REMARK  103  A    between atoms: _288  and  _290
REMARK  104  A    between atoms: _290  and  _291
REMARK  105  A    between atoms: _290  and  _293
REMARK  106  A    between atoms: _293  and  _294
REMARK  107  A    between atoms: _297  and  _299
REMARK  108  A    between atoms: _299  and  _300
REMARK  109  A    between atoms: _299  and  _302
REMARK  110  A    between atoms: _302  and  _303
REMARK  111  A    between atoms: _306  and  _308
REMARK  112  A    between atoms: _308  and  _309
REMARK  113  A    between atoms: _308  and  _311
REMARK  114  A    between atoms: _311  and  _312
REMARK  115  A    between atoms: _316  and  _317
REMARK  116  A    between atoms: _323  and  _324
REMARK  117  A    between atoms: _329  and  _331
REMARK  118  A    between atoms: _331  and  _332
REMARK  119  A    between atoms: _331  and  _334
REMARK  120  A    between atoms: _334  and  _335
REMARK  121  A    between atoms: _338  and  _340
REMARK  122  A    between atoms: _340  and  _341
REMARK  123  A    between atoms: _340  and  _343
REMARK  124  A    between atoms: _343  and  _344
REMARK  125  A    between atoms: _347  and  _349
REMARK  126  A    between atoms: _349  and  _350
REMARK  127  A    between atoms: _349  and  _352
REMARK  128  A    between atoms: _354  and  _356
REMARK  129  A    between atoms: _356  and  _357
REMARK  130  A    between atoms: _356  and  _359
REMARK  131  A    between atoms: _362  and  _364
REMARK  132  A    between atoms: _364  and  _365
REMARK  133  A    between atoms: _364  and  _367
REMARK  134  A    between atoms: _367  and  _368
REMARK  135  A    between atoms: _378  and  _380
REMARK  136  A    between atoms: _380  and  _381
REMARK  137  A    between atoms: _380  and  _383
REMARK  138  A    between atoms: _383  and  _384
REMARK  139  A    between atoms: _389  and  _391
REMARK  140  A    between atoms: _391  and  _392
REMARK  141  A    between atoms: _391  and  _394
REMARK  142  A    between atoms: _394  and  _395
REMARK  143  A    between atoms: _395  and  _396
REMARK  144  A    between atoms: _396  and  _397
REMARK                            x       y       z     vdW  Elec       q    Type
REMARK                         _______ _______ _______ _____ _____    ______ ____
ROOT
ATOM      1  CG  TRP A   1      12.170  -0.156  24.106  0.00  0.00    -0.002 A 
ATOM      2  CD1 TRP A   1      13.438   0.437  24.258  0.00  0.00    +0.068 A 
ATOM      3  NE1 TRP A   1      14.144   0.391  23.080  0.00  0.00    -0.352 N 
ATOM      4  HE1 TRP A   1      15.103   0.766  22.935  0.00  0.00    +0.166 HD
ATOM      5  CE2 TRP A   1      13.366  -0.239  22.112  0.00  0.00    +0.056 A 
ATOM      6  CZ2 TRP A   1      13.637  -0.539  20.748  0.00  0.00    +0.017 A 
ATOM      7  CH2 TRP A   1      12.626  -1.143  20.042  0.00  0.00    +0.001 A 
ATOM      8  CZ3 TRP A   1      11.393  -1.499  20.671  0.00  0.00    +0.000 A 
ATOM      9  CE3 TRP A   1      11.121  -1.204  21.954  0.00  0.00    +0.001 A 
ATOM     10  CD2 TRP A   1      12.123  -0.598  22.729  0.00  0.00    +0.013 A 
ENDROOT
BRANCH   1  11
ATOM     11  CB  TRP A   1      11.036  -0.232  25.088  0.00  0.00    +0.053 C 
BRANCH  11  12
ATOM     12  CA  TRP A   1      10.037   0.950  24.842  0.00  0.00    +0.137 C 
BRANCH  12  13
ATOM     13  N   TRP A   1      10.483   2.147  25.597  0.00  0.00    -0.239 NA
ATOM     14  H   TRP A   1      11.069   2.041  26.450  0.00  0.00    +0.142 HD
ENDBRANCH  12  13
BRANCH  12  15
ATOM     15  C   TRP A   1       8.692   0.497  25.381  0.00  0.00    +0.224 C 
ATOM     16  O   TRP A   1       8.462   0.452  26.606  0.00  0.00    -0.287 OA
ENDBRANCH  12  15
ENDBRANCH  11  12
ENDBRANCH   1  11
TORSDOF 4
REMARK  Name = ../refined-set-2016/4q8y/4q8y_pocket.pdb
REMARK  144 active torsions:
REMARK  status: ('A' for Active; 'I' for Inactive)
REMARK    1  A    between atoms: _1  and  _3
REMARK    2  A    between atoms: _3  and  _4
REMARK    3  A    between atoms: _3  and  _6
REMARK    4  A    between atoms: _6  and  _7
REMARK    5  A    between atoms: _17  and  _19
REMARK    6  A    between atoms: _19  and  _20
REMARK    7  A    between atoms: _19  and  _22
REMARK    8  A    between atoms: _22  and  _23
REMARK    9  A    between atoms: _28  and  _29
REMARK   10  A    between atoms: _31  and  _33
REMARK   11  A    between atoms: _33  and  _34
REMARK   12  A    between atoms: _33  and  _36
REMARK   13  A    between atoms: _36  and  _37
REMARK   14  A    between atoms: _39  and  _41
REMARK   15  A    between atoms: _41  and  _42
REMARK   16  A    between atoms: _41  and  _44
REMARK   17  A    between atoms: _44  and  _45
REMARK   18  A    between atoms: _50  and  _52
REMARK   19  A    between atoms: _52  and  _53
REMARK   20  A    between atoms: _52  and  _55
REMARK   21  A    between atoms: _55  and  _56
REMARK   22  A    between atoms: _61  and  _63
REMARK   23  A    between atoms: _63  and  _64
REMARK   24  A    between atoms: _67  and  _69
REMARK   25  A    between atoms: _69  and  _70
REMARK   26  A    between atoms: _69  and  _72
REMARK   27  A    between atoms: _72  and  _73
REMARK   28  A    between atoms: _78  and  _80
REMARK   29  A    between atoms: _80  and  _81
REMARK   30  A    between atoms: _80  and  _83
REMARK   31  A    between atoms: _83  and  _84
REMARK   32  A    between atoms: _87  and  _89
REMARK   33  A    between atoms: _89  and  _90
REMARK   34  A    between atoms: _89  and  _92
REMARK   35  A    between atoms: _92  and  _93
REMARK   36  A    between atoms: _93  and  _94
REMARK   37  A    between atoms: _99  and  _101
REMARK   38  A    between atoms: _112  and  _115
REMARK   39  A    between atoms: _115  and  _116
REMARK   40  A    between atoms: _124  and  _125
REMARK   41  A    between atoms: _133  and  _135
REMARK   42  A    between atoms: _135  and  _136
REMARK   43  A    between atoms: _135  and  _138
REMARK   44  A    between atoms: _138  and  _139
REMARK   45  A    between atoms: _139  and  _140
REMARK   46  A    between atoms: _143  and  _145
REMARK   47  A    between atoms: _145  and  _146
REMARK   48  A    between atoms: _145  and  _148
REMARK   49  A    between atoms: _148  and  _149
REMARK   50  A    between atoms: _154  and  _156
REMARK   51  A    between atoms: _156  and  _157
REMARK   52  A    between atoms: _156  and  _159
REMARK   53  A    between atoms: _159  and  _160
REMARK   54  A    between atoms: _160  and  _161
REMARK   55  A    between atoms: _164  and  _166
REMARK   56  A    between atoms: _166  and  _167
REMARK   57  A    between atoms: _166  and  _169
REMARK   58  A    between atoms: _169  and  _170
REMARK   59  A    between atoms: _173  and  _175
REMARK   60  A    between atoms: _175  and  _176
REMARK   61  A    between atoms: _175  and  _178
REMARK   62  A    between atoms: _178  and  _179
REMARK   63  A    between atoms: _180  and  ZN_406
REMARK   64  A    between atoms: _184  and  _186
REMARK   65  A    between atoms: _186  and  _187
REMARK   66  A    between atoms: _186  and  _189
REMARK   67  A    between atoms: _189  and  _190
REMARK   68  A    between atoms: _193  and  _195
REMARK   69  A    between atoms: _195  and  _196
REMARK   70  A    between atoms: _195  and  _198
REMARK   71  A    between atoms: _201  and  _203
REMARK   72  A    between atoms: _203  and  _204
REMARK   73  A    between atoms: _203  and  _206
REMARK   74  A    between atoms: _206  and  _207
REMARK   75  A    between atoms: _212  and  _214
REMARK   76  A    between atoms: _214  and  _215
REMARK   77  A    between atoms: _214  and  _217
REMARK   78  A    between atoms: _217  and  _218
REMARK   79  A    between atoms: _228  and  _230
REMARK   80  A    between atoms: _230  and  _231
REMARK   81  A    between atoms: _230  and  _233
REMARK   82  A    between atoms: _233  and  _234
REMARK   83  A    between atoms: _240  and  _242
REMARK   84  A    between atoms: _242  and  _243
REMARK   85  A    between atoms: _242  and  _245
REMARK   86  A    between atoms: _248  and  _250
REMARK   87  A    between atoms: _250  and  _251
REMARK   88  A    between atoms: _250  and  _253
REMARK   89  A    between atoms: _253  and  _254
REMARK   90  A    between atoms: _257  and  _259
REMARK   91  A    between atoms: _259  and  _260
REMARK   92  A    between atoms: _263  and  _265
REMARK   93  A    between atoms: _265  and  _266
REMARK   94  A    between atoms: _265  and  _268
REMARK   95  A    between atoms: _271  and  _273
REMARK   96  A    between atoms: _273  and  _274
REMARK   97  A    between atoms: _273  and  _276
REMARK   98  A    between atoms: _276  and  _277
REMARK   99  A    between atoms: _280  and  _282
REMARK  100  A    between atoms: _282  and  _283
REMARK  101  A    between atoms: _282  and  _285
REMARK  102  A    between atoms: _285  and  _286
REMARK  103  A    between atoms: _288  and  _290
REMARK  104  A    between atoms: _290  and  _291
REMARK  105  A    between atoms: _290  and  _293
REMARK  106  A    between atoms: _293  and  _294
REMARK  107  A    between atoms: _297  and  _299
REMARK  108  A    between atoms: _299  and  _300
REMARK  109  A    between atoms: _299  and  _302
REMARK  110  A    between atoms: _302  and  _303
REMARK  111  A    between atoms: _306  and  _308
REMARK  112  A    between atoms: _308  and  _309
REMARK  113  A    between atoms: _308  and  _311
REMARK  114  A    between atoms: _311  and  _312
REMARK  115  A    between atoms: _316  and  _317
REMARK  116  A    between atoms: _323  and  _324
REMARK  117  A    between atoms: _329  and  _331
REMARK  118  A    between atoms: _331  and  _332
REMARK  119  A    between atoms: _331  and  _334
REMARK  120  A    between atoms: _334  and  _335
REMARK  121  A    between atoms: _338  and  _340
REMARK  122  A    between atoms: _340  and  _341
REMARK  123  A    between atoms: _340  and  _343
REMARK  124  A    between atoms: _343  and  _344
REMARK  125  A    between atoms: _347  and  _349
REMARK  126  A    between atoms: _349  and  _350
REMARK  127  A    between atoms: _349  and  _352
REMARK  128  A    between atoms: _354  and  _356
REMARK  129  A    between atoms: _356  and  _357
REMARK  130  A    between atoms: _356  and  _359
REMARK  131  A    between atoms: _362  and  _364
REMARK  132  A    between atoms: _364  and  _365
REMARK  133  A    between atoms: _364  and  _367
REMARK  134  A    between atoms: _367  and  _368
REMARK  135  A    between atoms: _378  and  _380
REMARK  136  A    between atoms: _380  and  _381
REMARK  137  A    between atoms: _380  and  _383
REMARK  138  A    between atoms: _383  and  _384
REMARK  139  A    between atoms: _389  and  _391
REMARK  140  A    between atoms: _391  and  _392
REMARK  141  A    between atoms: _391  and  _394
REMARK  142  A    between atoms: _394  and  _395
REMARK  143  A    between atoms: _395  and  _396
REMARK  144  A    between atoms: _396  and  _397
REMARK                            x       y       z     vdW  Elec       q    Type
REMARK                         _______ _______ _______ _____ _____    ______ ____
ROOT
ATOM      1  CB  ASN A   1      19.053  -7.467  10.443  0.00  0.00    +0.110 C 
ENDROOT
BRANCH   1   2
ATOM      2  CG  ASN A   1      17.558  -7.665  10.129  0.00  0.00    +0.221 C 
ATOM      3  OD1 ASN A   1      16.928  -8.545  10.735  0.00  0.00    -0.275 OA
ATOM      4  ND2 ASN A   1      16.956  -6.735   9.369  0.00  0.00    -0.329 N 
ATOM      5 HD21 ASN A   1      15.921  -6.734   9.271  0.00  0.00    +0.145 HD
ATOM      6 HD22 ASN A   1      17.525  -6.016   8.879  0.00  0.00    +0.145 HD
ENDBRANCH   1   2
BRANCH   1   7
ATOM      7  CA  ASN A   1      19.574  -8.392  11.582  0.00  0.00    +0.142 C 
BRANCH   7   8
ATOM      8  N   ASN A   1      19.259  -9.823  11.325  0.00  0.00    -0.239 NA
ATOM      9  H   ASN A   1      18.337 -10.084  10.920  0.00  0.00    +0.142 HD
ENDBRANCH   7   8
BRANCH   7  10
ATOM     10  C   ASN A   1      18.992  -7.991  12.949  0.00  0.00    +0.225 C 
ATOM     11  O   ASN A   1      18.346  -6.941  13.046  0.00  0.00    -0.287 OA
ENDBRANCH   7  10
ENDBRANCH   1   7
TORSDOF 4
REMARK  Name = ../refined-set-2016/4q8y/4q8y_pocket.pdb
REMARK  144 active torsions:
REMARK  status: ('A' for Active; 'I' for Inactive)
REMARK    1  A    between atoms: _1  and  _3
REMARK    2  A    between atoms: _3  and  _4
REMARK    3  A    between atoms: _3  and  _6
REMARK    4  A    between atoms: _6  and  _7
REMARK    5  A    between atoms: _17  and  _19
REMARK    6  A    between atoms: _19  and  _20
REMARK    7  A    between atoms: _19  and  _22
REMARK    8  A    between atoms: _22  and  _23
REMARK    9  A    between atoms: _28  and  _29
REMARK   10  A    between atoms: _31  and  _33
REMARK   11  A    between atoms: _33  and  _34
REMARK   12  A    between atoms: _33  and  _36
REMARK   13  A    between atoms: _36  and  _37
REMARK   14  A    between atoms: _39  and  _41
REMARK   15  A    between atoms: _41  and  _42
REMARK   16  A    between atoms: _41  and  _44
REMARK   17  A    between atoms: _44  and  _45
REMARK   18  A    between atoms: _50  and  _52
REMARK   19  A    between atoms: _52  and  _53
REMARK   20  A    between atoms: _52  and  _55
REMARK   21  A    between atoms: _55  and  _56
REMARK   22  A    between atoms: _61  and  _63
REMARK   23  A    between atoms: _63  and  _64
REMARK   24  A    between atoms: _67  and  _69
REMARK   25  A    between atoms: _69  and  _70
REMARK   26  A    between atoms: _69  and  _72
REMARK   27  A    between atoms: _72  and  _73
REMARK   28  A    between atoms: _78  and  _80
REMARK   29  A    between atoms: _80  and  _81
REMARK   30  A    between atoms: _80  and  _83
REMARK   31  A    between atoms: _83  and  _84
REMARK   32  A    between atoms: _87  and  _89
REMARK   33  A    between atoms: _89  and  _90
REMARK   34  A    between atoms: _89  and  _92
REMARK   35  A    between atoms: _92  and  _93
REMARK   36  A    between atoms: _93  and  _94
REMARK   37  A    between atoms: _99  and  _101
REMARK   38  A    between atoms: _112  and  _115
REMARK   39  A    between atoms: _115  and  _116
REMARK   40  A    between atoms: _124  and  _125
REMARK   41  A    between atoms: _133  and  _135
REMARK   42  A    between atoms: _135  and  _136
REMARK   43  A    between atoms: _135  and  _138
REMARK   44  A    between atoms: _138  and  _139
REMARK   45  A    between atoms: _139  and  _140
REMARK   46  A    between atoms: _143  and  _145
REMARK   47  A    between atoms: _145  and  _146
REMARK   48  A    between atoms: _145  and  _148
REMARK   49  A    between atoms: _148  and  _149
REMARK   50  A    between atoms: _154  and  _156
REMARK   51  A    between atoms: _156  and  _157
REMARK   52  A    between atoms: _156  and  _159
REMARK   53  A    between atoms: _159  and  _160
REMARK   54  A    between atoms: _160  and  _161
REMARK   55  A    between atoms: _164  and  _166
REMARK   56  A    between atoms: _166  and  _167
REMARK   57  A    between atoms: _166  and  _169
REMARK   58  A    between atoms: _169  and  _170
REMARK   59  A    between atoms: _173  and  _175
REMARK   60  A    between atoms: _175  and  _176
REMARK   61  A    between atoms: _175  and  _178
REMARK   62  A    between atoms: _178  and  _179
REMARK   63  A    between atoms: _180  and  ZN_406
REMARK   64  A    between atoms: _184  and  _186
REMARK   65  A    between atoms: _186  and  _187
REMARK   66  A    between atoms: _186  and  _189
REMARK   67  A    between atoms: _189  and  _190
REMARK   68  A    between atoms: _193  and  _195
REMARK   69  A    between atoms: _195  and  _196
REMARK   70  A    between atoms: _195  and  _198
REMARK   71  A    between atoms: _201  and  _203
REMARK   72  A    between atoms: _203  and  _204
REMARK   73  A    between atoms: _203  and  _206
REMARK   74  A    between atoms: _206  and  _207
REMARK   75  A    between atoms: _212  and  _214
REMARK   76  A    between atoms: _214  and  _215
REMARK   77  A    between atoms: _214  and  _217
REMARK   78  A    between atoms: _217  and  _218
REMARK   79  A    between atoms: _228  and  _230
REMARK   80  A    between atoms: _230  and  _231
REMARK   81  A    between atoms: _230  and  _233
REMARK   82  A    between atoms: _233  and  _234
REMARK   83  A    between atoms: _240  and  _242
REMARK   84  A    between atoms: _242  and  _243
REMARK   85  A    between atoms: _242  and  _245
REMARK   86  A    between atoms: _248  and  _250
REMARK   87  A    between atoms: _250  and  _251
REMARK   88  A    between atoms: _250  and  _253
REMARK   89  A    between atoms: _253  and  _254
REMARK   90  A    between atoms: _257  and  _259
REMARK   91  A    between atoms: _259  and  _260
REMARK   92  A    between atoms: _263  and  _265
REMARK   93  A    between atoms: _265  and  _266
REMARK   94  A    between atoms: _265  and  _268
REMARK   95  A    between atoms: _271  and  _273
REMARK   96  A    between atoms: _273  and  _274
REMARK   97  A    between atoms: _273  and  _276
REMARK   98  A    between atoms: _276  and  _277
REMARK   99  A    between atoms: _280  and  _282
REMARK  100  A    between atoms: _282  and  _283
REMARK  101  A    between atoms: _282  and  _285
REMARK  102  A    between atoms: _285  and  _286
REMARK  103  A    between atoms: _288  and  _290
REMARK  104  A    between atoms: _290  and  _291
REMARK  105  A    between atoms: _290  and  _293
REMARK  106  A    between atoms: _293  and  _294
REMARK  107  A    between atoms: _297  and  _299
REMARK  108  A    between atoms: _299  and  _300
REMARK  109  A    between atoms: _299  and  _302
REMARK  110  A    between atoms: _302  and  _303
REMARK  111  A    between atoms: _306  and  _308
REMARK  112  A    between atoms: _308  and  _309
REMARK  113  A    between atoms: _308  and  _311
REMARK  114  A    between atoms: _311  and  _312
REMARK  115  A    between atoms: _316  and  _317
REMARK  116  A    between atoms: _323  and  _324
REMARK  117  A    between atoms: _329  and  _331
REMARK  118  A    between atoms: _331  and  _332
REMARK  119  A    between atoms: _331  and  _334
REMARK  120  A    between atoms: _334  and  _335
REMARK  121  A    between atoms: _338  and  _340
REMARK  122  A    between atoms: _340  and  _341
REMARK  123  A    between atoms: _340  and  _343
REMARK  124  A    between atoms: _343  and  _344
REMARK  125  A    between atoms: _347  and  _349
REMARK  126  A    between atoms: _349  and  _350
REMARK  127  A    between atoms: _349  and  _352
REMARK  128  A    between atoms: _354  and  _356
REMARK  129  A    between atoms: _356  and  _357
REMARK  130  A    between atoms: _356  and  _359
REMARK  131  A    between atoms: _362  and  _364
REMARK  132  A    between atoms: _364  and  _365
REMARK  133  A    between atoms: _364  and  _367
REMARK  134  A    between atoms: _367  and  _368
REMARK  135  A    between atoms: _378  and  _380
REMARK  136  A    between atoms: _380  and  _381
REMARK  137  A    between atoms: _380  and  _383
REMARK  138  A    between atoms: _383  and  _384
REMARK  139  A    between atoms: _389  and  _391
REMARK  140  A    between atoms: _391  and  _392
REMARK  141  A    between atoms: _391  and  _394
REMARK  142  A    between atoms: _394  and  _395
REMARK  143  A    between atoms: _395  and  _396
REMARK  144  A    between atoms: _396  and  _397
REMARK                            x       y       z     vdW  Elec       q    Type
REMARK                         _______ _______ _______ _____ _____    ______ ____
ROOT
ATOM      1  NE  ARG A   1      23.260  -4.067  21.130  0.00  0.00    +0.330 N 
ATOM      2  CZ  ARG A   1      23.420  -3.012  21.905  0.00  0.00    +0.000 C 
ATOM      3  NH2 ARG A   1      24.663  -2.758  22.377  0.00  0.00    +0.330 N 
ATOM      4 HH21 ARG A   1      24.828  -1.935  22.991  0.00  0.00    +0.000 HD
ATOM      5 HH22 ARG A   1      25.453  -3.386  22.126  0.00  0.00    +0.000 HD
ATOM      6  NH1 ARG A   1      22.437  -2.208  22.256  0.00  0.00    +0.330 N 
ATOM      7 HH11 ARG A   1      22.628  -1.391  22.871  0.00  0.00    +0.000 HD
ATOM      8 HH12 ARG A   1      21.470  -2.390  21.918  0.00  0.00    +0.000 HD
ATOM      9  HE  ARG A   1      24.064  -4.711  20.991  0.00  0.00    +0.000 HD
ENDROOT
BRANCH   1  10
ATOM     10  CD  ARG A   1      21.966  -4.373  20.443  0.00  0.00    +0.000 C 
BRANCH  10  11
ATOM     11  CG  ARG A   1      22.089  -5.777  19.807  0.00  0.00    +0.000 C 
BRANCH  11  12
ATOM     12  CB  ARG A   1      20.995  -6.023  18.783  0.00  0.00    +0.000 C 
BRANCH  12  13
ATOM     13  CA  ARG A   1      20.947  -7.488  18.315  0.00  0.00    +0.000 C 
BRANCH  13  14
ATOM     14  N   ARG A   1      19.967  -7.600  17.194  0.00  0.00    +0.000 NA
ATOM     15  H   ARG A   1      19.155  -6.950  17.178  0.00  0.00    +0.000 HD
ENDBRANCH  13  14
BRANCH  13  16
ATOM     16  C   ARG A   1      20.458  -8.375  19.468  0.00  0.00    +0.000 C 
ATOM     17  O   ARG A   1      19.228  -8.410  19.763  0.00  0.00    +0.000 OA
ENDBRANCH  13  16
ENDBRANCH  12  13
ENDBRANCH  11  12
ENDBRANCH  10  11
ENDBRANCH   1  10
TORSDOF 6
REMARK  Name = ../refined-set-2016/4q8y/4q8y_pocket.pdb
REMARK  144 active torsions:
REMARK  status: ('A' for Active; 'I' for Inactive)
REMARK    1  A    between atoms: _1  and  _3
REMARK    2  A    between atoms: _3  and  _4
REMARK    3  A    between atoms: _3  and  _6
REMARK    4  A    between atoms: _6  and  _7
REMARK    5  A    between atoms: _17  and  _19
REMARK    6  A    between atoms: _19  and  _20
REMARK    7  A    between atoms: _19  and  _22
REMARK    8  A    between atoms: _22  and  _23
REMARK    9  A    between atoms: _28  and  _29
REMARK   10  A    between atoms: _31  and  _33
REMARK   11  A    between atoms: _33  and  _34
REMARK   12  A    between atoms: _33  and  _36
REMARK   13  A    between atoms: _36  and  _37
REMARK   14  A    between atoms: _39  and  _41
REMARK   15  A    between atoms: _41  and  _42
REMARK   16  A    between atoms: _41  and  _44
REMARK   17  A    between atoms: _44  and  _45
REMARK   18  A    between atoms: _50  and  _52
REMARK   19  A    between atoms: _52  and  _53
REMARK   20  A    between atoms: _52  and  _55
REMARK   21  A    between atoms: _55  and  _56
REMARK   22  A    between atoms: _61  and  _63
REMARK   23  A    between atoms: _63  and  _64
REMARK   24  A    between atoms: _67  and  _69
REMARK   25  A    between atoms: _69  and  _70
REMARK   26  A    between atoms: _69  and  _72
REMARK   27  A    between atoms: _72  and  _73
REMARK   28  A    between atoms: _78  and  _80
REMARK   29  A    between atoms: _80  and  _81
REMARK   30  A    between atoms: _80  and  _83
REMARK   31  A    between atoms: _83  and  _84
REMARK   32  A    between atoms: _87  and  _89
REMARK   33  A    between atoms: _89  and  _90
REMARK   34  A    between atoms: _89  and  _92
REMARK   35  A    between atoms: _92  and  _93
REMARK   36  A    between atoms: _93  and  _94
REMARK   37  A    between atoms: _99  and  _101
REMARK   38  A    between atoms: _112  and  _115
REMARK   39  A    between atoms: _115  and  _116
REMARK   40  A    between atoms: _124  and  _125
REMARK   41  A    between atoms: _133  and  _135
REMARK   42  A    between atoms: _135  and  _136
REMARK   43  A    between atoms: _135  and  _138
REMARK   44  A    between atoms: _138  and  _139
REMARK   45  A    between atoms: _139  and  _140
REMARK   46  A    between atoms: _143  and  _145
REMARK   47  A    between atoms: _145  and  _146
REMARK   48  A    between atoms: _145  and  _148
REMARK   49  A    between atoms: _148  and  _149
REMARK   50  A    between atoms: _154  and  _156
REMARK   51  A    between atoms: _156  and  _157
REMARK   52  A    between atoms: _156  and  _159
REMARK   53  A    between atoms: _159  and  _160
REMARK   54  A    between atoms: _160  and  _161
REMARK   55  A    between atoms: _164  and  _166
REMARK   56  A    between atoms: _166  and  _167
REMARK   57  A    between atoms: _166  and  _169
REMARK   58  A    between atoms: _169  and  _170
REMARK   59  A    between atoms: _173  and  _175
REMARK   60  A    between atoms: _175  and  _176
REMARK   61  A    between atoms: _175  and  _178
REMARK   62  A    between atoms: _178  and  _179
REMARK   63  A    between atoms: _180  and  ZN_406
REMARK   64  A    between atoms: _184  and  _186
REMARK   65  A    between atoms: _186  and  _187
REMARK   66  A    between atoms: _186  and  _189
REMARK   67  A    between atoms: _189  and  _190
REMARK   68  A    between atoms: _193  and  _195
REMARK   69  A    between atoms: _195  and  _196
REMARK   70  A    between atoms: _195  and  _198
REMARK   71  A    between atoms: _201  and  _203
REMARK   72  A    between atoms: _203  and  _204
REMARK   73  A    between atoms: _203  and  _206
REMARK   74  A    between atoms: _206  and  _207
REMARK   75  A    between atoms: _212  and  _214
REMARK   76  A    between atoms: _214  and  _215
REMARK   77  A    between atoms: _214  and  _217
REMARK   78  A    between atoms: _217  and  _218
REMARK   79  A    between atoms: _228  and  _230
REMARK   80  A    between atoms: _230  and  _231
REMARK   81  A    between atoms: _230  and  _233
REMARK   82  A    between atoms: _233  and  _234
REMARK   83  A    between atoms: _240  and  _242
REMARK   84  A    between atoms: _242  and  _243
REMARK   85  A    between atoms: _242  and  _245
REMARK   86  A    between atoms: _248  and  _250
REMARK   87  A    between atoms: _250  and  _251
REMARK   88  A    between atoms: _250  and  _253
REMARK   89  A    between atoms: _253  and  _254
REMARK   90  A    between atoms: _257  and  _259
REMARK   91  A    between atoms: _259  and  _260
REMARK   92  A    between atoms: _263  and  _265
REMARK   93  A    between atoms: _265  and  _266
REMARK   94  A    between atoms: _265  and  _268
REMARK   95  A    between atoms: _271  and  _273
REMARK   96  A    between atoms: _273  and  _274
REMARK   97  A    between atoms: _273  and  _276
REMARK   98  A    between atoms: _276  and  _277
REMARK   99  A    between atoms: _280  and  _282
REMARK  100  A    between atoms: _282  and  _283
REMARK  101  A    between atoms: _282  and  _285
REMARK  102  A    between atoms: _285  and  _286
REMARK  103  A    between atoms: _288  and  _290
REMARK  104  A    between atoms: _290  and  _291
REMARK  105  A    between atoms: _290  and  _293
REMARK  106  A    between atoms: _293  and  _294
REMARK  107  A    between atoms: _297  and  _299
REMARK  108  A    between atoms: _299  and  _300
REMARK  109  A    between atoms: _299  and  _302
REMARK  110  A    between atoms: _302  and  _303
REMARK  111  A    between atoms: _306  and  _308
REMARK  112  A    between atoms: _308  and  _309
REMARK  113  A    between atoms: _308  and  _311
REMARK  114  A    between atoms: _311  and  _312
REMARK  115  A    between atoms: _316  and  _317
REMARK  116  A    between atoms: _323  and  _324
REMARK  117  A    between atoms: _329  and  _331
REMARK  118  A    between atoms: _331  and  _332
REMARK  119  A    between atoms: _331  and  _334
REMARK  120  A    between atoms: _334  and  _335
REMARK  121  A    between atoms: _338  and  _340
REMARK  122  A    between atoms: _340  and  _341
REMARK  123  A    between atoms: _340  and  _343
REMARK  124  A    between atoms: _343  and  _344
REMARK  125  A    between atoms: _347  and  _349
REMARK  126  A    between atoms: _349  and  _350
REMARK  127  A    between atoms: _349  and  _352
REMARK  128  A    between atoms: _354  and  _356
REMARK  129  A    between atoms: _356  and  _357
REMARK  130  A    between atoms: _356  and  _359
REMARK  131  A    between atoms: _362  and  _364
REMARK  132  A    between atoms: _364  and  _365
REMARK  133  A    between atoms: _364  and  _367
REMARK  134  A    between atoms: _367  and  _368
REMARK  135  A    between atoms: _378  and  _380
REMARK  136  A    between atoms: _380  and  _381
REMARK  137  A    between atoms: _380  and  _383
REMARK  138  A    between atoms: _383  and  _384
REMARK  139  A    between atoms: _389  and  _391
REMARK  140  A    between atoms: _391  and  _392
REMARK  141  A    between atoms: _391  and  _394
REMARK  142  A    between atoms: _394  and  _395
REMARK  143  A    between atoms: _395  and  _396
REMARK  144  A    between atoms: _396  and  _397
REMARK                            x       y       z     vdW  Elec       q    Type
REMARK                         _______ _______ _______ _____ _____    ______ ____
ROOT
ATOM      1  O   HOH     1      19.792  -4.418  15.699  0.00  0.00    +0.000 OA
ENDROOT
TORSDOF 0
REMARK  Name = ../refined-set-2016/4q8y/4q8y_pocket.pdb
REMARK  144 active torsions:
REMARK  status: ('A' for Active; 'I' for Inactive)
REMARK    1  A    between atoms: _1  and  _3
REMARK    2  A    between atoms: _3  and  _4
REMARK    3  A    between atoms: _3  and  _6
REMARK    4  A    between atoms: _6  and  _7
REMARK    5  A    between atoms: _17  and  _19
REMARK    6  A    between atoms: _19  and  _20
REMARK    7  A    between atoms: _19  and  _22
REMARK    8  A    between atoms: _22  and  _23
REMARK    9  A    between atoms: _28  and  _29
REMARK   10  A    between atoms: _31  and  _33
REMARK   11  A    between atoms: _33  and  _34
REMARK   12  A    between atoms: _33  and  _36
REMARK   13  A    between atoms: _36  and  _37
REMARK   14  A    between atoms: _39  and  _41
REMARK   15  A    between atoms: _41  and  _42
REMARK   16  A    between atoms: _41  and  _44
REMARK   17  A    between atoms: _44  and  _45
REMARK   18  A    between atoms: _50  and  _52
REMARK   19  A    between atoms: _52  and  _53
REMARK   20  A    between atoms: _52  and  _55
REMARK   21  A    between atoms: _55  and  _56
REMARK   22  A    between atoms: _61  and  _63
REMARK   23  A    between atoms: _63  and  _64
REMARK   24  A    between atoms: _67  and  _69
REMARK   25  A    between atoms: _69  and  _70
REMARK   26  A    between atoms: _69  and  _72
REMARK   27  A    between atoms: _72  and  _73
REMARK   28  A    between atoms: _78  and  _80
REMARK   29  A    between atoms: _80  and  _81
REMARK   30  A    between atoms: _80  and  _83
REMARK   31  A    between atoms: _83  and  _84
REMARK   32  A    between atoms: _87  and  _89
REMARK   33  A    between atoms: _89  and  _90
REMARK   34  A    between atoms: _89  and  _92
REMARK   35  A    between atoms: _92  and  _93
REMARK   36  A    between atoms: _93  and  _94
REMARK   37  A    between atoms: _99  and  _101
REMARK   38  A    between atoms: _112  and  _115
REMARK   39  A    between atoms: _115  and  _116
REMARK   40  A    between atoms: _124  and  _125
REMARK   41  A    between atoms: _133  and  _135
REMARK   42  A    between atoms: _135  and  _136
REMARK   43  A    between atoms: _135  and  _138
REMARK   44  A    between atoms: _138  and  _139
REMARK   45  A    between atoms: _139  and  _140
REMARK   46  A    between atoms: _143  and  _145
REMARK   47  A    between atoms: _145  and  _146
REMARK   48  A    between atoms: _145  and  _148
REMARK   49  A    between atoms: _148  and  _149
REMARK   50  A    between atoms: _154  and  _156
REMARK   51  A    between atoms: _156  and  _157
REMARK   52  A    between atoms: _156  and  _159
REMARK   53  A    between atoms: _159  and  _160
REMARK   54  A    between atoms: _160  and  _161
REMARK   55  A    between atoms: _164  and  _166
REMARK   56  A    between atoms: _166  and  _167
REMARK   57  A    between atoms: _166  and  _169
REMARK   58  A    between atoms: _169  and  _170
REMARK   59  A    between atoms: _173  and  _175
REMARK   60  A    between atoms: _175  and  _176
REMARK   61  A    between atoms: _175  and  _178
REMARK   62  A    between atoms: _178  and  _179
REMARK   63  A    between atoms: _180  and  ZN_406
REMARK   64  A    between atoms: _184  and  _186
REMARK   65  A    between atoms: _186  and  _187
REMARK   66  A    between atoms: _186  and  _189
REMARK   67  A    between atoms: _189  and  _190
REMARK   68  A    between atoms: _193  and  _195
REMARK   69  A    between atoms: _195  and  _196
REMARK   70  A    between atoms: _195  and  _198
REMARK   71  A    between atoms: _201  and  _203
REMARK   72  A    between atoms: _203  and  _204
REMARK   73  A    between atoms: _203  and  _206
REMARK   74  A    between atoms: _206  and  _207
REMARK   75  A    between atoms: _212  and  _214
REMARK   76  A    between atoms: _214  and  _215
REMARK   77  A    between atoms: _214  and  _217
REMARK   78  A    between atoms: _217  and  _218
REMARK   79  A    between atoms: _228  and  _230
REMARK   80  A    between atoms: _230  and  _231
REMARK   81  A    between atoms: _230  and  _233
REMARK   82  A    between atoms: _233  and  _234
REMARK   83  A    between atoms: _240  and  _242
REMARK   84  A    between atoms: _242  and  _243
REMARK   85  A    between atoms: _242  and  _245
REMARK   86  A    between atoms: _248  and  _250
REMARK   87  A    between atoms: _250  and  _251
REMARK   88  A    between atoms: _250  and  _253
REMARK   89  A    between atoms: _253  and  _254
REMARK   90  A    between atoms: _257  and  _259
REMARK   91  A    between atoms: _259  and  _260
REMARK   92  A    between atoms: _263  and  _265
REMARK   93  A    between atoms: _265  and  _266
REMARK   94  A    between atoms: _265  and  _268
REMARK   95  A    between atoms: _271  and  _273
REMARK   96  A    between atoms: _273  and  _274
REMARK   97  A    between atoms: _273  and  _276
REMARK   98  A    between atoms: _276  and  _277
REMARK   99  A    between atoms: _280  and  _282
REMARK  100  A    between atoms: _282  and  _283
REMARK  101  A    between atoms: _282  and  _285
REMARK  102  A    between atoms: _285  and  _286
REMARK  103  A    between atoms: _288  and  _290
REMARK  104  A    between atoms: _290  and  _291
REMARK  105  A    between atoms: _290  and  _293
REMARK  106  A    between atoms: _293  and  _294
REMARK  107  A    between atoms: _297  and  _299
REMARK  108  A    between atoms: _299  and  _300
REMARK  109  A    between atoms: _299  and  _302
REMARK  110  A    between atoms: _302  and  _303
REMARK  111  A    between atoms: _306  and  _308
REMARK  112  A    between atoms: _308  and  _309
REMARK  113  A    between atoms: _308  and  _311
REMARK  114  A    between atoms: _311  and  _312
REMARK  115  A    between atoms: _316  and  _317
REMARK  116  A    between atoms: _323  and  _324
REMARK  117  A    between atoms: _329  and  _331
REMARK  118  A    between atoms: _331  and  _332
REMARK  119  A    between atoms: _331  and  _334
REMARK  120  A    between atoms: _334  and  _335
REMARK  121  A    between atoms: _338  and  _340
REMARK  122  A    between atoms: _340  and  _341
REMARK  123  A    between atoms: _340  and  _343
REMARK  124  A    between atoms: _343  and  _344
REMARK  125  A    between atoms: _347  and  _349
REMARK  126  A    between atoms: _349  and  _350
REMARK  127  A    between atoms: _349  and  _352
REMARK  128  A    between atoms: _354  and  _356
REMARK  129  A    between atoms: _356  and  _357
REMARK  130  A    between atoms: _356  and  _359
REMARK  131  A    between atoms: _362  and  _364
REMARK  132  A    between atoms: _364  and  _365
REMARK  133  A    between atoms: _364  and  _367
REMARK  134  A    between atoms: _367  and  _368
REMARK  135  A    between atoms: _378  and  _380
REMARK  136  A    between atoms: _380  and  _381
REMARK  137  A    between atoms: _380  and  _383
REMARK  138  A    between atoms: _383  and  _384
REMARK  139  A    between atoms: _389  and  _391
REMARK  140  A    between atoms: _391  and  _392
REMARK  141  A    between atoms: _391  and  _394
REMARK  142  A    between atoms: _394  and  _395
REMARK  143  A    between atoms: _395  and  _396
REMARK  144  A    between atoms: _396  and  _397
REMARK                            x       y       z     vdW  Elec       q    Type
REMARK                         _______ _______ _______ _____ _____    ______ ____
ROOT
ATOM      1  O   HOH     1      18.540  -3.630  11.391  0.00  0.00    +0.000 OA
ENDROOT
TORSDOF 0
REMARK  Name = ../refined-set-2016/4q8y/4q8y_pocket.pdb
REMARK  144 active torsions:
REMARK  status: ('A' for Active; 'I' for Inactive)
REMARK    1  A    between atoms: _1  and  _3
REMARK    2  A    between atoms: _3  and  _4
REMARK    3  A    between atoms: _3  and  _6
REMARK    4  A    between atoms: _6  and  _7
REMARK    5  A    between atoms: _17  and  _19
REMARK    6  A    between atoms: _19  and  _20
REMARK    7  A    between atoms: _19  and  _22
REMARK    8  A    between atoms: _22  and  _23
REMARK    9  A    between atoms: _28  and  _29
REMARK   10  A    between atoms: _31  and  _33
REMARK   11  A    between atoms: _33  and  _34
REMARK   12  A    between atoms: _33  and  _36
REMARK   13  A    between atoms: _36  and  _37
REMARK   14  A    between atoms: _39  and  _41
REMARK   15  A    between atoms: _41  and  _42
REMARK   16  A    between atoms: _41  and  _44
REMARK   17  A    between atoms: _44  and  _45
REMARK   18  A    between atoms: _50  and  _52
REMARK   19  A    between atoms: _52  and  _53
REMARK   20  A    between atoms: _52  and  _55
REMARK   21  A    between atoms: _55  and  _56
REMARK   22  A    between atoms: _61  and  _63
REMARK   23  A    between atoms: _63  and  _64
REMARK   24  A    between atoms: _67  and  _69
REMARK   25  A    between atoms: _69  and  _70
REMARK   26  A    between atoms: _69  and  _72
REMARK   27  A    between atoms: _72  and  _73
REMARK   28  A    between atoms: _78  and  _80
REMARK   29  A    between atoms: _80  and  _81
REMARK   30  A    between atoms: _80  and  _83
REMARK   31  A    between atoms: _83  and  _84
REMARK   32  A    between atoms: _87  and  _89
REMARK   33  A    between atoms: _89  and  _90
REMARK   34  A    between atoms: _89  and  _92
REMARK   35  A    between atoms: _92  and  _93
REMARK   36  A    between atoms: _93  and  _94
REMARK   37  A    between atoms: _99  and  _101
REMARK   38  A    between atoms: _112  and  _115
REMARK   39  A    between atoms: _115  and  _116
REMARK   40  A    between atoms: _124  and  _125
REMARK   41  A    between atoms: _133  and  _135
REMARK   42  A    between atoms: _135  and  _136
REMARK   43  A    between atoms: _135  and  _138
REMARK   44  A    between atoms: _138  and  _139
REMARK   45  A    between atoms: _139  and  _140
REMARK   46  A    between atoms: _143  and  _145
REMARK   47  A    between atoms: _145  and  _146
REMARK   48  A    between atoms: _145  and  _148
REMARK   49  A    between atoms: _148  and  _149
REMARK   50  A    between atoms: _154  and  _156
REMARK   51  A    between atoms: _156  and  _157
REMARK   52  A    between atoms: _156  and  _159
REMARK   53  A    between atoms: _159  and  _160
REMARK   54  A    between atoms: _160  and  _161
REMARK   55  A    between atoms: _164  and  _166
REMARK   56  A    between atoms: _166  and  _167
REMARK   57  A    between atoms: _166  and  _169
REMARK   58  A    between atoms: _169  and  _170
REMARK   59  A    between atoms: _173  and  _175
REMARK   60  A    between atoms: _175  and  _176
REMARK   61  A    between atoms: _175  and  _178
REMARK   62  A    between atoms: _178  and  _179
REMARK   63  A    between atoms: _180  and  ZN_406
REMARK   64  A    between atoms: _184  and  _186
REMARK   65  A    between atoms: _186  and  _187
REMARK   66  A    between atoms: _186  and  _189
REMARK   67  A    between atoms: _189  and  _190
REMARK   68  A    between atoms: _193  and  _195
REMARK   69  A    between atoms: _195  and  _196
REMARK   70  A    between atoms: _195  and  _198
REMARK   71  A    between atoms: _201  and  _203
REMARK   72  A    between atoms: _203  and  _204
REMARK   73  A    between atoms: _203  and  _206
REMARK   74  A    between atoms: _206  and  _207
REMARK   75  A    between atoms: _212  and  _214
REMARK   76  A    between atoms: _214  and  _215
REMARK   77  A    between atoms: _214  and  _217
REMARK   78  A    between atoms: _217  and  _218
REMARK   79  A    between atoms: _228  and  _230
REMARK   80  A    between atoms: _230  and  _231
REMARK   81  A    between atoms: _230  and  _233
REMARK   82  A    between atoms: _233  and  _234
REMARK   83  A    between atoms: _240  and  _242
REMARK   84  A    between atoms: _242  and  _243
REMARK   85  A    between atoms: _242  and  _245
REMARK   86  A    between atoms: _248  and  _250
REMARK   87  A    between atoms: _250  and  _251
REMARK   88  A    between atoms: _250  and  _253
REMARK   89  A    between atoms: _253  and  _254
REMARK   90  A    between atoms: _257  and  _259
REMARK   91  A    between atoms: _259  and  _260
REMARK   92  A    between atoms: _263  and  _265
REMARK   93  A    between atoms: _265  and  _266
REMARK   94  A    between atoms: _265  and  _268
REMARK   95  A    between atoms: _271  and  _273
REMARK   96  A    between atoms: _273  and  _274
REMARK   97  A    between atoms: _273  and  _276
REMARK   98  A    between atoms: _276  and  _277
REMARK   99  A    between atoms: _280  and  _282
REMARK  100  A    between atoms: _282  and  _283
REMARK  101  A    between atoms: _282  and  _285
REMARK  102  A    between atoms: _285  and  _286
REMARK  103  A    between atoms: _288  and  _290
REMARK  104  A    between atoms: _290  and  _291
REMARK  105  A    between atoms: _290  and  _293
REMARK  106  A    between atoms: _293  and  _294
REMARK  107  A    between atoms: _297  and  _299
REMARK  108  A    between atoms: _299  and  _300
REMARK  109  A    between atoms: _299  and  _302
REMARK  110  A    between atoms: _302  and  _303
REMARK  111  A    between atoms: _306  and  _308
REMARK  112  A    between atoms: _308  and  _309
REMARK  113  A    between atoms: _308  and  _311
REMARK  114  A    between atoms: _311  and  _312
REMARK  115  A    between atoms: _316  and  _317
REMARK  116  A    between atoms: _323  and  _324
REMARK  117  A    between atoms: _329  and  _331
REMARK  118  A    between atoms: _331  and  _332
REMARK  119  A    between atoms: _331  and  _334
REMARK  120  A    between atoms: _334  and  _335
REMARK  121  A    between atoms: _338  and  _340
REMARK  122  A    between atoms: _340  and  _341
REMARK  123  A    between atoms: _340  and  _343
REMARK  124  A    between atoms: _343  and  _344
REMARK  125  A    between atoms: _347  and  _349
REMARK  126  A    between atoms: _349  and  _350
REMARK  127  A    between atoms: _349  and  _352
REMARK  128  A    between atoms: _354  and  _356
REMARK  129  A    between atoms: _356  and  _357
REMARK  130  A    between atoms: _356  and  _359
REMARK  131  A    between atoms: _362  and  _364
REMARK  132  A    between atoms: _364  and  _365
REMARK  133  A    between atoms: _364  and  _367
REMARK  134  A    between atoms: _367  and  _368
REMARK  135  A    between atoms: _378  and  _380
REMARK  136  A    between atoms: _380  and  _381
REMARK  137  A    between atoms: _380  and  _383
REMARK  138  A    between atoms: _383  and  _384
REMARK  139  A    between atoms: _389  and  _391
REMARK  140  A    between atoms: _391  and  _392
REMARK  141  A    between atoms: _391  and  _394
REMARK  142  A    between atoms: _394  and  _395
REMARK  143  A    between atoms: _395  and  _396
REMARK  144  A    between atoms: _396  and  _397
REMARK                            x       y       z     vdW  Elec       q    Type
REMARK                         _______ _______ _______ _____ _____    ______ ____
ROOT
ATOM      1  O   HOH     1      16.799  -1.155  11.804  0.00  0.00    +0.000 OA
ENDROOT
TORSDOF 0
REMARK  Name = ../refined-set-2016/4q8y/4q8y_pocket.pdb
REMARK  144 active torsions:
REMARK  status: ('A' for Active; 'I' for Inactive)
REMARK    1  A    between atoms: _1  and  _3
REMARK    2  A    between atoms: _3  and  _4
REMARK    3  A    between atoms: _3  and  _6
REMARK    4  A    between atoms: _6  and  _7
REMARK    5  A    between atoms: _17  and  _19
REMARK    6  A    between atoms: _19  and  _20
REMARK    7  A    between atoms: _19  and  _22
REMARK    8  A    between atoms: _22  and  _23
REMARK    9  A    between atoms: _28  and  _29
REMARK   10  A    between atoms: _31  and  _33
REMARK   11  A    between atoms: _33  and  _34
REMARK   12  A    between atoms: _33  and  _36
REMARK   13  A    between atoms: _36  and  _37
REMARK   14  A    between atoms: _39  and  _41
REMARK   15  A    between atoms: _41  and  _42
REMARK   16  A    between atoms: _41  and  _44
REMARK   17  A    between atoms: _44  and  _45
REMARK   18  A    between atoms: _50  and  _52
REMARK   19  A    between atoms: _52  and  _53
REMARK   20  A    between atoms: _52  and  _55
REMARK   21  A    between atoms: _55  and  _56
REMARK   22  A    between atoms: _61  and  _63
REMARK   23  A    between atoms: _63  and  _64
REMARK   24  A    between atoms: _67  and  _69
REMARK   25  A    between atoms: _69  and  _70
REMARK   26  A    between atoms: _69  and  _72
REMARK   27  A    between atoms: _72  and  _73
REMARK   28  A    between atoms: _78  and  _80
REMARK   29  A    between atoms: _80  and  _81
REMARK   30  A    between atoms: _80  and  _83
REMARK   31  A    between atoms: _83  and  _84
REMARK   32  A    between atoms: _87  and  _89
REMARK   33  A    between atoms: _89  and  _90
REMARK   34  A    between atoms: _89  and  _92
REMARK   35  A    between atoms: _92  and  _93
REMARK   36  A    between atoms: _93  and  _94
REMARK   37  A    between atoms: _99  and  _101
REMARK   38  A    between atoms: _112  and  _115
REMARK   39  A    between atoms: _115  and  _116
REMARK   40  A    between atoms: _124  and  _125
REMARK   41  A    between atoms: _133  and  _135
REMARK   42  A    between atoms: _135  and  _136
REMARK   43  A    between atoms: _135  and  _138
REMARK   44  A    between atoms: _138  and  _139
REMARK   45  A    between atoms: _139  and  _140
REMARK   46  A    between atoms: _143  and  _145
REMARK   47  A    between atoms: _145  and  _146
REMARK   48  A    between atoms: _145  and  _148
REMARK   49  A    between atoms: _148  and  _149
REMARK   50  A    between atoms: _154  and  _156
REMARK   51  A    between atoms: _156  and  _157
REMARK   52  A    between atoms: _156  and  _159
REMARK   53  A    between atoms: _159  and  _160
REMARK   54  A    between atoms: _160  and  _161
REMARK   55  A    between atoms: _164  and  _166
REMARK   56  A    between atoms: _166  and  _167
REMARK   57  A    between atoms: _166  and  _169
REMARK   58  A    between atoms: _169  and  _170
REMARK   59  A    between atoms: _173  and  _175
REMARK   60  A    between atoms: _175  and  _176
REMARK   61  A    between atoms: _175  and  _178
REMARK   62  A    between atoms: _178  and  _179
REMARK   63  A    between atoms: _180  and  ZN_406
REMARK   64  A    between atoms: _184  and  _186
REMARK   65  A    between atoms: _186  and  _187
REMARK   66  A    between atoms: _186  and  _189
REMARK   67  A    between atoms: _189  and  _190
REMARK   68  A    between atoms: _193  and  _195
REMARK   69  A    between atoms: _195  and  _196
REMARK   70  A    between atoms: _195  and  _198
REMARK   71  A    between atoms: _201  and  _203
REMARK   72  A    between atoms: _203  and  _204
REMARK   73  A    between atoms: _203  and  _206
REMARK   74  A    between atoms: _206  and  _207
REMARK   75  A    between atoms: _212  and  _214
REMARK   76  A    between atoms: _214  and  _215
REMARK   77  A    between atoms: _214  and  _217
REMARK   78  A    between atoms: _217  and  _218
REMARK   79  A    between atoms: _228  and  _230
REMARK   80  A    between atoms: _230  and  _231
REMARK   81  A    between atoms: _230  and  _233
REMARK   82  A    between atoms: _233  and  _234
REMARK   83  A    between atoms: _240  and  _242
REMARK   84  A    between atoms: _242  and  _243
REMARK   85  A    between atoms: _242  and  _245
REMARK   86  A    between atoms: _248  and  _250
REMARK   87  A    between atoms: _250  and  _251
REMARK   88  A    between atoms: _250  and  _253
REMARK   89  A    between atoms: _253  and  _254
REMARK   90  A    between atoms: _257  and  _259
REMARK   91  A    between atoms: _259  and  _260
REMARK   92  A    between atoms: _263  and  _265
REMARK   93  A    between atoms: _265  and  _266
REMARK   94  A    between atoms: _265  and  _268
REMARK   95  A    between atoms: _271  and  _273
REMARK   96  A    between atoms: _273  and  _274
REMARK   97  A    between atoms: _273  and  _276
REMARK   98  A    between atoms: _276  and  _277
REMARK   99  A    between atoms: _280  and  _282
REMARK  100  A    between atoms: _282  and  _283
REMARK  101  A    between atoms: _282  and  _285
REMARK  102  A    between atoms: _285  and  _286
REMARK  103  A    between atoms: _288  and  _290
REMARK  104  A    between atoms: _290  and  _291
REMARK  105  A    between atoms: _290  and  _293
REMARK  106  A    between atoms: _293  and  _294
REMARK  107  A    between atoms: _297  and  _299
REMARK  108  A    between atoms: _299  and  _300
REMARK  109  A    between atoms: _299  and  _302
REMARK  110  A    between atoms: _302  and  _303
REMARK  111  A    between atoms: _306  and  _308
REMARK  112  A    between atoms: _308  and  _309
REMARK  113  A    between atoms: _308  and  _311
REMARK  114  A    between atoms: _311  and  _312
REMARK  115  A    between atoms: _316  and  _317
REMARK  116  A    between atoms: _323  and  _324
REMARK  117  A    between atoms: _329  and  _331
REMARK  118  A    between atoms: _331  and  _332
REMARK  119  A    between atoms: _331  and  _334
REMARK  120  A    between atoms: _334  and  _335
REMARK  121  A    between atoms: _338  and  _340
REMARK  122  A    between atoms: _340  and  _341
REMARK  123  A    between atoms: _340  and  _343
REMARK  124  A    between atoms: _343  and  _344
REMARK  125  A    between atoms: _347  and  _349
REMARK  126  A    between atoms: _349  and  _350
REMARK  127  A    between atoms: _349  and  _352
REMARK  128  A    between atoms: _354  and  _356
REMARK  129  A    between atoms: _356  and  _357
REMARK  130  A    between atoms: _356  and  _359
REMARK  131  A    between atoms: _362  and  _364
REMARK  132  A    between atoms: _364  and  _365
REMARK  133  A    between atoms: _364  and  _367
REMARK  134  A    between atoms: _367  and  _368
REMARK  135  A    between atoms: _378  and  _380
REMARK  136  A    between atoms: _380  and  _381
REMARK  137  A    between atoms: _380  and  _383
REMARK  138  A    between atoms: _383  and  _384
REMARK  139  A    between atoms: _389  and  _391
REMARK  140  A    between atoms: _391  and  _392
REMARK  141  A    between atoms: _391  and  _394
REMARK  142  A    between atoms: _394  and  _395
REMARK  143  A    between atoms: _395  and  _396
REMARK  144  A    between atoms: _396  and  _397
REMARK                            x       y       z     vdW  Elec       q    Type
REMARK                         _______ _______ _______ _____ _____    ______ ____
ROOT
ATOM      1  O   HOH     1      15.597   0.935  10.442  0.00  0.00    +0.000 OA
ENDROOT
TORSDOF 0
REMARK  Name = ../refined-set-2016/4q8y/4q8y_pocket.pdb
REMARK  144 active torsions:
REMARK  status: ('A' for Active; 'I' for Inactive)
REMARK    1  A    between atoms: _1  and  _3
REMARK    2  A    between atoms: _3  and  _4
REMARK    3  A    between atoms: _3  and  _6
REMARK    4  A    between atoms: _6  and  _7
REMARK    5  A    between atoms: _17  and  _19
REMARK    6  A    between atoms: _19  and  _20
REMARK    7  A    between atoms: _19  and  _22
REMARK    8  A    between atoms: _22  and  _23
REMARK    9  A    between atoms: _28  and  _29
REMARK   10  A    between atoms: _31  and  _33
REMARK   11  A    between atoms: _33  and  _34
REMARK   12  A    between atoms: _33  and  _36
REMARK   13  A    between atoms: _36  and  _37
REMARK   14  A    between atoms: _39  and  _41
REMARK   15  A    between atoms: _41  and  _42
REMARK   16  A    between atoms: _41  and  _44
REMARK   17  A    between atoms: _44  and  _45
REMARK   18  A    between atoms: _50  and  _52
REMARK   19  A    between atoms: _52  and  _53
REMARK   20  A    between atoms: _52  and  _55
REMARK   21  A    between atoms: _55  and  _56
REMARK   22  A    between atoms: _61  and  _63
REMARK   23  A    between atoms: _63  and  _64
REMARK   24  A    between atoms: _67  and  _69
REMARK   25  A    between atoms: _69  and  _70
REMARK   26  A    between atoms: _69  and  _72
REMARK   27  A    between atoms: _72  and  _73
REMARK   28  A    between atoms: _78  and  _80
REMARK   29  A    between atoms: _80  and  _81
REMARK   30  A    between atoms: _80  and  _83
REMARK   31  A    between atoms: _83  and  _84
REMARK   32  A    between atoms: _87  and  _89
REMARK   33  A    between atoms: _89  and  _90
REMARK   34  A    between atoms: _89  and  _92
REMARK   35  A    between atoms: _92  and  _93
REMARK   36  A    between atoms: _93  and  _94
REMARK   37  A    between atoms: _99  and  _101
REMARK   38  A    between atoms: _112  and  _115
REMARK   39  A    between atoms: _115  and  _116
REMARK   40  A    between atoms: _124  and  _125
REMARK   41  A    between atoms: _133  and  _135
REMARK   42  A    between atoms: _135  and  _136
REMARK   43  A    between atoms: _135  and  _138
REMARK   44  A    between atoms: _138  and  _139
REMARK   45  A    between atoms: _139  and  _140
REMARK   46  A    between atoms: _143  and  _145
REMARK   47  A    between atoms: _145  and  _146
REMARK   48  A    between atoms: _145  and  _148
REMARK   49  A    between atoms: _148  and  _149
REMARK   50  A    between atoms: _154  and  _156
REMARK   51  A    between atoms: _156  and  _157
REMARK   52  A    between atoms: _156  and  _159
REMARK   53  A    between atoms: _159  and  _160
REMARK   54  A    between atoms: _160  and  _161
REMARK   55  A    between atoms: _164  and  _166
REMARK   56  A    between atoms: _166  and  _167
REMARK   57  A    between atoms: _166  and  _169
REMARK   58  A    between atoms: _169  and  _170
REMARK   59  A    between atoms: _173  and  _175
REMARK   60  A    between atoms: _175  and  _176
REMARK   61  A    between atoms: _175  and  _178
REMARK   62  A    between atoms: _178  and  _179
REMARK   63  A    between atoms: _180  and  ZN_406
REMARK   64  A    between atoms: _184  and  _186
REMARK   65  A    between atoms: _186  and  _187
REMARK   66  A    between atoms: _186  and  _189
REMARK   67  A    between atoms: _189  and  _190
REMARK   68  A    between atoms: _193  and  _195
REMARK   69  A    between atoms: _195  and  _196
REMARK   70  A    between atoms: _195  and  _198
REMARK   71  A    between atoms: _201  and  _203
REMARK   72  A    between atoms: _203  and  _204
REMARK   73  A    between atoms: _203  and  _206
REMARK   74  A    between atoms: _206  and  _207
REMARK   75  A    between atoms: _212  and  _214
REMARK   76  A    between atoms: _214  and  _215
REMARK   77  A    between atoms: _214  and  _217
REMARK   78  A    between atoms: _217  and  _218
REMARK   79  A    between atoms: _228  and  _230
REMARK   80  A    between atoms: _230  and  _231
REMARK   81  A    between atoms: _230  and  _233
REMARK   82  A    between atoms: _233  and  _234
REMARK   83  A    between atoms: _240  and  _242
REMARK   84  A    between atoms: _242  and  _243
REMARK   85  A    between atoms: _242  and  _245
REMARK   86  A    between atoms: _248  and  _250
REMARK   87  A    between atoms: _250  and  _251
REMARK   88  A    between atoms: _250  and  _253
REMARK   89  A    between atoms: _253  and  _254
REMARK   90  A    between atoms: _257  and  _259
REMARK   91  A    between atoms: _259  and  _260
REMARK   92  A    between atoms: _263  and  _265
REMARK   93  A    between atoms: _265  and  _266
REMARK   94  A    between atoms: _265  and  _268
REMARK   95  A    between atoms: _271  and  _273
REMARK   96  A    between atoms: _273  and  _274
REMARK   97  A    between atoms: _273  and  _276
REMARK   98  A    between atoms: _276  and  _277
REMARK   99  A    between atoms: _280  and  _282
REMARK  100  A    between atoms: _282  and  _283
REMARK  101  A    between atoms: _282  and  _285
REMARK  102  A    between atoms: _285  and  _286
REMARK  103  A    between atoms: _288  and  _290
REMARK  104  A    between atoms: _290  and  _291
REMARK  105  A    between atoms: _290  and  _293
REMARK  106  A    between atoms: _293  and  _294
REMARK  107  A    between atoms: _297  and  _299
REMARK  108  A    between atoms: _299  and  _300
REMARK  109  A    between atoms: _299  and  _302
REMARK  110  A    between atoms: _302  and  _303
REMARK  111  A    between atoms: _306  and  _308
REMARK  112  A    between atoms: _308  and  _309
REMARK  113  A    between atoms: _308  and  _311
REMARK  114  A    between atoms: _311  and  _312
REMARK  115  A    between atoms: _316  and  _317
REMARK  116  A    between atoms: _323  and  _324
REMARK  117  A    between atoms: _329  and  _331
REMARK  118  A    between atoms: _331  and  _332
REMARK  119  A    between atoms: _331  and  _334
REMARK  120  A    between atoms: _334  and  _335
REMARK  121  A    between atoms: _338  and  _340
REMARK  122  A    between atoms: _340  and  _341
REMARK  123  A    between atoms: _340  and  _343
REMARK  124  A    between atoms: _343  and  _344
REMARK  125  A    between atoms: _347  and  _349
REMARK  126  A    between atoms: _349  and  _350
REMARK  127  A    between atoms: _349  and  _352
REMARK  128  A    between atoms: _354  and  _356
REMARK  129  A    between atoms: _356  and  _357
REMARK  130  A    between atoms: _356  and  _359
REMARK  131  A    between atoms: _362  and  _364
REMARK  132  A    between atoms: _364  and  _365
REMARK  133  A    between atoms: _364  and  _367
REMARK  134  A    between atoms: _367  and  _368
REMARK  135  A    between atoms: _378  and  _380
REMARK  136  A    between atoms: _380  and  _381
REMARK  137  A    between atoms: _380  and  _383
REMARK  138  A    between atoms: _383  and  _384
REMARK  139  A    between atoms: _389  and  _391
REMARK  140  A    between atoms: _391  and  _392
REMARK  141  A    between atoms: _391  and  _394
REMARK  142  A    between atoms: _394  and  _395
REMARK  143  A    between atoms: _395  and  _396
REMARK  144  A    between atoms: _396  and  _397
REMARK                            x       y       z     vdW  Elec       q    Type
REMARK                         _______ _______ _______ _____ _____    ______ ____
ROOT
ATOM      1  O   HOH     1      16.800   3.321  10.280  0.00  0.00    +0.000 OA
ENDROOT
TORSDOF 0
REMARK  Name = ../refined-set-2016/4q8y/4q8y_pocket.pdb
REMARK  144 active torsions:
REMARK  status: ('A' for Active; 'I' for Inactive)
REMARK    1  A    between atoms: _1  and  _3
REMARK    2  A    between atoms: _3  and  _4
REMARK    3  A    between atoms: _3  and  _6
REMARK    4  A    between atoms: _6  and  _7
REMARK    5  A    between atoms: _17  and  _19
REMARK    6  A    between atoms: _19  and  _20
REMARK    7  A    between atoms: _19  and  _22
REMARK    8  A    between atoms: _22  and  _23
REMARK    9  A    between atoms: _28  and  _29
REMARK   10  A    between atoms: _31  and  _33
REMARK   11  A    between atoms: _33  and  _34
REMARK   12  A    between atoms: _33  and  _36
REMARK   13  A    between atoms: _36  and  _37
REMARK   14  A    between atoms: _39  and  _41
REMARK   15  A    between atoms: _41  and  _42
REMARK   16  A    between atoms: _41  and  _44
REMARK   17  A    between atoms: _44  and  _45
REMARK   18  A    between atoms: _50  and  _52
REMARK   19  A    between atoms: _52  and  _53
REMARK   20  A    between atoms: _52  and  _55
REMARK   21  A    between atoms: _55  and  _56
REMARK   22  A    between atoms: _61  and  _63
REMARK   23  A    between atoms: _63  and  _64
REMARK   24  A    between atoms: _67  and  _69
REMARK   25  A    between atoms: _69  and  _70
REMARK   26  A    between atoms: _69  and  _72
REMARK   27  A    between atoms: _72  and  _73
REMARK   28  A    between atoms: _78  and  _80
REMARK   29  A    between atoms: _80  and  _81
REMARK   30  A    between atoms: _80  and  _83
REMARK   31  A    between atoms: _83  and  _84
REMARK   32  A    between atoms: _87  and  _89
REMARK   33  A    between atoms: _89  and  _90
REMARK   34  A    between atoms: _89  and  _92
REMARK   35  A    between atoms: _92  and  _93
REMARK   36  A    between atoms: _93  and  _94
REMARK   37  A    between atoms: _99  and  _101
REMARK   38  A    between atoms: _112  and  _115
REMARK   39  A    between atoms: _115  and  _116
REMARK   40  A    between atoms: _124  and  _125
REMARK   41  A    between atoms: _133  and  _135
REMARK   42  A    between atoms: _135  and  _136
REMARK   43  A    between atoms: _135  and  _138
REMARK   44  A    between atoms: _138  and  _139
REMARK   45  A    between atoms: _139  and  _140
REMARK   46  A    between atoms: _143  and  _145
REMARK   47  A    between atoms: _145  and  _146
REMARK   48  A    between atoms: _145  and  _148
REMARK   49  A    between atoms: _148  and  _149
REMARK   50  A    between atoms: _154  and  _156
REMARK   51  A    between atoms: _156  and  _157
REMARK   52  A    between atoms: _156  and  _159
REMARK   53  A    between atoms: _159  and  _160
REMARK   54  A    between atoms: _160  and  _161
REMARK   55  A    between atoms: _164  and  _166
REMARK   56  A    between atoms: _166  and  _167
REMARK   57  A    between atoms: _166  and  _169
REMARK   58  A    between atoms: _169  and  _170
REMARK   59  A    between atoms: _173  and  _175
REMARK   60  A    between atoms: _175  and  _176
REMARK   61  A    between atoms: _175  and  _178
REMARK   62  A    between atoms: _178  and  _179
REMARK   63  A    between atoms: _180  and  ZN_406
REMARK   64  A    between atoms: _184  and  _186
REMARK   65  A    between atoms: _186  and  _187
REMARK   66  A    between atoms: _186  and  _189
REMARK   67  A    between atoms: _189  and  _190
REMARK   68  A    between atoms: _193  and  _195
REMARK   69  A    between atoms: _195  and  _196
REMARK   70  A    between atoms: _195  and  _198
REMARK   71  A    between atoms: _201  and  _203
REMARK   72  A    between atoms: _203  and  _204
REMARK   73  A    between atoms: _203  and  _206
REMARK   74  A    between atoms: _206  and  _207
REMARK   75  A    between atoms: _212  and  _214
REMARK   76  A    between atoms: _214  and  _215
REMARK   77  A    between atoms: _214  and  _217
REMARK   78  A    between atoms: _217  and  _218
REMARK   79  A    between atoms: _228  and  _230
REMARK   80  A    between atoms: _230  and  _231
REMARK   81  A    between atoms: _230  and  _233
REMARK   82  A    between atoms: _233  and  _234
REMARK   83  A    between atoms: _240  and  _242
REMARK   84  A    between atoms: _242  and  _243
REMARK   85  A    between atoms: _242  and  _245
REMARK   86  A    between atoms: _248  and  _250
REMARK   87  A    between atoms: _250  and  _251
REMARK   88  A    between atoms: _250  and  _253
REMARK   89  A    between atoms: _253  and  _254
REMARK   90  A    between atoms: _257  and  _259
REMARK   91  A    between atoms: _259  and  _260
REMARK   92  A    between atoms: _263  and  _265
REMARK   93  A    between atoms: _265  and  _266
REMARK   94  A    between atoms: _265  and  _268
REMARK   95  A    between atoms: _271  and  _273
REMARK   96  A    between atoms: _273  and  _274
REMARK   97  A    between atoms: _273  and  _276
REMARK   98  A    between atoms: _276  and  _277
REMARK   99  A    between atoms: _280  and  _282
REMARK  100  A    between atoms: _282  and  _283
REMARK  101  A    between atoms: _282  and  _285
REMARK  102  A    between atoms: _285  and  _286
REMARK  103  A    between atoms: _288  and  _290
REMARK  104  A    between atoms: _290  and  _291
REMARK  105  A    between atoms: _290  and  _293
REMARK  106  A    between atoms: _293  and  _294
REMARK  107  A    between atoms: _297  and  _299
REMARK  108  A    between atoms: _299  and  _300
REMARK  109  A    between atoms: _299  and  _302
REMARK  110  A    between atoms: _302  and  _303
REMARK  111  A    between atoms: _306  and  _308
REMARK  112  A    between atoms: _308  and  _309
REMARK  113  A    between atoms: _308  and  _311
REMARK  114  A    between atoms: _311  and  _312
REMARK  115  A    between atoms: _316  and  _317
REMARK  116  A    between atoms: _323  and  _324
REMARK  117  A    between atoms: _329  and  _331
REMARK  118  A    between atoms: _331  and  _332
REMARK  119  A    between atoms: _331  and  _334
REMARK  120  A    between atoms: _334  and  _335
REMARK  121  A    between atoms: _338  and  _340
REMARK  122  A    between atoms: _340  and  _341
REMARK  123  A    between atoms: _340  and  _343
REMARK  124  A    between atoms: _343  and  _344
REMARK  125  A    between atoms: _347  and  _349
REMARK  126  A    between atoms: _349  and  _350
REMARK  127  A    between atoms: _349  and  _352
REMARK  128  A    between atoms: _354  and  _356
REMARK  129  A    between atoms: _356  and  _357
REMARK  130  A    between atoms: _356  and  _359
REMARK  131  A    between atoms: _362  and  _364
REMARK  132  A    between atoms: _364  and  _365
REMARK  133  A    between atoms: _364  and  _367
REMARK  134  A    between atoms: _367  and  _368
REMARK  135  A    between atoms: _378  and  _380
REMARK  136  A    between atoms: _380  and  _381
REMARK  137  A    between atoms: _380  and  _383
REMARK  138  A    between atoms: _383  and  _384
REMARK  139  A    between atoms: _389  and  _391
REMARK  140  A    between atoms: _391  and  _392
REMARK  141  A    between atoms: _391  and  _394
REMARK  142  A    between atoms: _394  and  _395
REMARK  143  A    between atoms: _395  and  _396
REMARK  144  A    between atoms: _396  and  _397
REMARK                            x       y       z     vdW  Elec       q    Type
REMARK                         _______ _______ _______ _____ _____    ______ ____
ROOT
ATOM      1  O   HOH     1      19.259   3.009  11.105  0.00  0.00    +0.000 OA
ENDROOT
TORSDOF 0
REMARK  Name = ../refined-set-2016/4q8y/4q8y_pocket.pdb
REMARK  144 active torsions:
REMARK  status: ('A' for Active; 'I' for Inactive)
REMARK    1  A    between atoms: _1  and  _3
REMARK    2  A    between atoms: _3  and  _4
REMARK    3  A    between atoms: _3  and  _6
REMARK    4  A    between atoms: _6  and  _7
REMARK    5  A    between atoms: _17  and  _19
REMARK    6  A    between atoms: _19  and  _20
REMARK    7  A    between atoms: _19  and  _22
REMARK    8  A    between atoms: _22  and  _23
REMARK    9  A    between atoms: _28  and  _29
REMARK   10  A    between atoms: _31  and  _33
REMARK   11  A    between atoms: _33  and  _34
REMARK   12  A    between atoms: _33  and  _36
REMARK   13  A    between atoms: _36  and  _37
REMARK   14  A    between atoms: _39  and  _41
REMARK   15  A    between atoms: _41  and  _42
REMARK   16  A    between atoms: _41  and  _44
REMARK   17  A    between atoms: _44  and  _45
REMARK   18  A    between atoms: _50  and  _52
REMARK   19  A    between atoms: _52  and  _53
REMARK   20  A    between atoms: _52  and  _55
REMARK   21  A    between atoms: _55  and  _56
REMARK   22  A    between atoms: _61  and  _63
REMARK   23  A    between atoms: _63  and  _64
REMARK   24  A    between atoms: _67  and  _69
REMARK   25  A    between atoms: _69  and  _70
REMARK   26  A    between atoms: _69  and  _72
REMARK   27  A    between atoms: _72  and  _73
REMARK   28  A    between atoms: _78  and  _80
REMARK   29  A    between atoms: _80  and  _81
REMARK   30  A    between atoms: _80  and  _83
REMARK   31  A    between atoms: _83  and  _84
REMARK   32  A    between atoms: _87  and  _89
REMARK   33  A    between atoms: _89  and  _90
REMARK   34  A    between atoms: _89  and  _92
REMARK   35  A    between atoms: _92  and  _93
REMARK   36  A    between atoms: _93  and  _94
REMARK   37  A    between atoms: _99  and  _101
REMARK   38  A    between atoms: _112  and  _115
REMARK   39  A    between atoms: _115  and  _116
REMARK   40  A    between atoms: _124  and  _125
REMARK   41  A    between atoms: _133  and  _135
REMARK   42  A    between atoms: _135  and  _136
REMARK   43  A    between atoms: _135  and  _138
REMARK   44  A    between atoms: _138  and  _139
REMARK   45  A    between atoms: _139  and  _140
REMARK   46  A    between atoms: _143  and  _145
REMARK   47  A    between atoms: _145  and  _146
REMARK   48  A    between atoms: _145  and  _148
REMARK   49  A    between atoms: _148  and  _149
REMARK   50  A    between atoms: _154  and  _156
REMARK   51  A    between atoms: _156  and  _157
REMARK   52  A    between atoms: _156  and  _159
REMARK   53  A    between atoms: _159  and  _160
REMARK   54  A    between atoms: _160  and  _161
REMARK   55  A    between atoms: _164  and  _166
REMARK   56  A    between atoms: _166  and  _167
REMARK   57  A    between atoms: _166  and  _169
REMARK   58  A    between atoms: _169  and  _170
REMARK   59  A    between atoms: _173  and  _175
REMARK   60  A    between atoms: _175  and  _176
REMARK   61  A    between atoms: _175  and  _178
REMARK   62  A    between atoms: _178  and  _179
REMARK   63  A    between atoms: _180  and  ZN_406
REMARK   64  A    between atoms: _184  and  _186
REMARK   65  A    between atoms: _186  and  _187
REMARK   66  A    between atoms: _186  and  _189
REMARK   67  A    between atoms: _189  and  _190
REMARK   68  A    between atoms: _193  and  _195
REMARK   69  A    between atoms: _195  and  _196
REMARK   70  A    between atoms: _195  and  _198
REMARK   71  A    between atoms: _201  and  _203
REMARK   72  A    between atoms: _203  and  _204
REMARK   73  A    between atoms: _203  and  _206
REMARK   74  A    between atoms: _206  and  _207
REMARK   75  A    between atoms: _212  and  _214
REMARK   76  A    between atoms: _214  and  _215
REMARK   77  A    between atoms: _214  and  _217
REMARK   78  A    between atoms: _217  and  _218
REMARK   79  A    between atoms: _228  and  _230
REMARK   80  A    between atoms: _230  and  _231
REMARK   81  A    between atoms: _230  and  _233
REMARK   82  A    between atoms: _233  and  _234
REMARK   83  A    between atoms: _240  and  _242
REMARK   84  A    between atoms: _242  and  _243
REMARK   85  A    between atoms: _242  and  _245
REMARK   86  A    between atoms: _248  and  _250
REMARK   87  A    between atoms: _250  and  _251
REMARK   88  A    between atoms: _250  and  _253
REMARK   89  A    between atoms: _253  and  _254
REMARK   90  A    between atoms: _257  and  _259
REMARK   91  A    between atoms: _259  and  _260
REMARK   92  A    between atoms: _263  and  _265
REMARK   93  A    between atoms: _265  and  _266
REMARK   94  A    between atoms: _265  and  _268
REMARK   95  A    between atoms: _271  and  _273
REMARK   96  A    between atoms: _273  and  _274
REMARK   97  A    between atoms: _273  and  _276
REMARK   98  A    between atoms: _276  and  _277
REMARK   99  A    between atoms: _280  and  _282
REMARK  100  A    between atoms: _282  and  _283
REMARK  101  A    between atoms: _282  and  _285
REMARK  102  A    between atoms: _285  and  _286
REMARK  103  A    between atoms: _288  and  _290
REMARK  104  A    between atoms: _290  and  _291
REMARK  105  A    between atoms: _290  and  _293
REMARK  106  A    between atoms: _293  and  _294
REMARK  107  A    between atoms: _297  and  _299
REMARK  108  A    between atoms: _299  and  _300
REMARK  109  A    between atoms: _299  and  _302
REMARK  110  A    between atoms: _302  and  _303
REMARK  111  A    between atoms: _306  and  _308
REMARK  112  A    between atoms: _308  and  _309
REMARK  113  A    between atoms: _308  and  _311
REMARK  114  A    between atoms: _311  and  _312
REMARK  115  A    between atoms: _316  and  _317
REMARK  116  A    between atoms: _323  and  _324
REMARK  117  A    between atoms: _329  and  _331
REMARK  118  A    between atoms: _331  and  _332
REMARK  119  A    between atoms: _331  and  _334
REMARK  120  A    between atoms: _334  and  _335
REMARK  121  A    between atoms: _338  and  _340
REMARK  122  A    between atoms: _340  and  _341
REMARK  123  A    between atoms: _340  and  _343
REMARK  124  A    between atoms: _343  and  _344
REMARK  125  A    between atoms: _347  and  _349
REMARK  126  A    between atoms: _349  and  _350
REMARK  127  A    between atoms: _349  and  _352
REMARK  128  A    between atoms: _354  and  _356
REMARK  129  A    between atoms: _356  and  _357
REMARK  130  A    between atoms: _356  and  _359
REMARK  131  A    between atoms: _362  and  _364
REMARK  132  A    between atoms: _364  and  _365
REMARK  133  A    between atoms: _364  and  _367
REMARK  134  A    between atoms: _367  and  _368
REMARK  135  A    between atoms: _378  and  _380
REMARK  136  A    between atoms: _380  and  _381
REMARK  137  A    between atoms: _380  and  _383
REMARK  138  A    between atoms: _383  and  _384
REMARK  139  A    between atoms: _389  and  _391
REMARK  140  A    between atoms: _391  and  _392
REMARK  141  A    between atoms: _391  and  _394
REMARK  142  A    between atoms: _394  and  _395
REMARK  143  A    between atoms: _395  and  _396
REMARK  144  A    between atoms: _396  and  _397
REMARK                            x       y       z     vdW  Elec       q    Type
REMARK                         _______ _______ _______ _____ _____    ______ ____
ROOT
ATOM      1  O   HOH     1      19.850   3.234  13.619  0.00  0.00    +0.000 OA
ENDROOT
TORSDOF 0
REMARK  Name = ../refined-set-2016/4q8y/4q8y_pocket.pdb
REMARK  144 active torsions:
REMARK  status: ('A' for Active; 'I' for Inactive)
REMARK    1  A    between atoms: _1  and  _3
REMARK    2  A    between atoms: _3  and  _4
REMARK    3  A    between atoms: _3  and  _6
REMARK    4  A    between atoms: _6  and  _7
REMARK    5  A    between atoms: _17  and  _19
REMARK    6  A    between atoms: _19  and  _20
REMARK    7  A    between atoms: _19  and  _22
REMARK    8  A    between atoms: _22  and  _23
REMARK    9  A    between atoms: _28  and  _29
REMARK   10  A    between atoms: _31  and  _33
REMARK   11  A    between atoms: _33  and  _34
REMARK   12  A    between atoms: _33  and  _36
REMARK   13  A    between atoms: _36  and  _37
REMARK   14  A    between atoms: _39  and  _41
REMARK   15  A    between atoms: _41  and  _42
REMARK   16  A    between atoms: _41  and  _44
REMARK   17  A    between atoms: _44  and  _45
REMARK   18  A    between atoms: _50  and  _52
REMARK   19  A    between atoms: _52  and  _53
REMARK   20  A    between atoms: _52  and  _55
REMARK   21  A    between atoms: _55  and  _56
REMARK   22  A    between atoms: _61  and  _63
REMARK   23  A    between atoms: _63  and  _64
REMARK   24  A    between atoms: _67  and  _69
REMARK   25  A    between atoms: _69  and  _70
REMARK   26  A    between atoms: _69  and  _72
REMARK   27  A    between atoms: _72  and  _73
REMARK   28  A    between atoms: _78  and  _80
REMARK   29  A    between atoms: _80  and  _81
REMARK   30  A    between atoms: _80  and  _83
REMARK   31  A    between atoms: _83  and  _84
REMARK   32  A    between atoms: _87  and  _89
REMARK   33  A    between atoms: _89  and  _90
REMARK   34  A    between atoms: _89  and  _92
REMARK   35  A    between atoms: _92  and  _93
REMARK   36  A    between atoms: _93  and  _94
REMARK   37  A    between atoms: _99  and  _101
REMARK   38  A    between atoms: _112  and  _115
REMARK   39  A    between atoms: _115  and  _116
REMARK   40  A    between atoms: _124  and  _125
REMARK   41  A    between atoms: _133  and  _135
REMARK   42  A    between atoms: _135  and  _136
REMARK   43  A    between atoms: _135  and  _138
REMARK   44  A    between atoms: _138  and  _139
REMARK   45  A    between atoms: _139  and  _140
REMARK   46  A    between atoms: _143  and  _145
REMARK   47  A    between atoms: _145  and  _146
REMARK   48  A    between atoms: _145  and  _148
REMARK   49  A    between atoms: _148  and  _149
REMARK   50  A    between atoms: _154  and  _156
REMARK   51  A    between atoms: _156  and  _157
REMARK   52  A    between atoms: _156  and  _159
REMARK   53  A    between atoms: _159  and  _160
REMARK   54  A    between atoms: _160  and  _161
REMARK   55  A    between atoms: _164  and  _166
REMARK   56  A    between atoms: _166  and  _167
REMARK   57  A    between atoms: _166  and  _169
REMARK   58  A    between atoms: _169  and  _170
REMARK   59  A    between atoms: _173  and  _175
REMARK   60  A    between atoms: _175  and  _176
REMARK   61  A    between atoms: _175  and  _178
REMARK   62  A    between atoms: _178  and  _179
REMARK   63  A    between atoms: _180  and  ZN_406
REMARK   64  A    between atoms: _184  and  _186
REMARK   65  A    between atoms: _186  and  _187
REMARK   66  A    between atoms: _186  and  _189
REMARK   67  A    between atoms: _189  and  _190
REMARK   68  A    between atoms: _193  and  _195
REMARK   69  A    between atoms: _195  and  _196
REMARK   70  A    between atoms: _195  and  _198
REMARK   71  A    between atoms: _201  and  _203
REMARK   72  A    between atoms: _203  and  _204
REMARK   73  A    between atoms: _203  and  _206
REMARK   74  A    between atoms: _206  and  _207
REMARK   75  A    between atoms: _212  and  _214
REMARK   76  A    between atoms: _214  and  _215
REMARK   77  A    between atoms: _214  and  _217
REMARK   78  A    between atoms: _217  and  _218
REMARK   79  A    between atoms: _228  and  _230
REMARK   80  A    between atoms: _230  and  _231
REMARK   81  A    between atoms: _230  and  _233
REMARK   82  A    between atoms: _233  and  _234
REMARK   83  A    between atoms: _240  and  _242
REMARK   84  A    between atoms: _242  and  _243
REMARK   85  A    between atoms: _242  and  _245
REMARK   86  A    between atoms: _248  and  _250
REMARK   87  A    between atoms: _250  and  _251
REMARK   88  A    between atoms: _250  and  _253
REMARK   89  A    between atoms: _253  and  _254
REMARK   90  A    between atoms: _257  and  _259
REMARK   91  A    between atoms: _259  and  _260
REMARK   92  A    between atoms: _263  and  _265
REMARK   93  A    between atoms: _265  and  _266
REMARK   94  A    between atoms: _265  and  _268
REMARK   95  A    between atoms: _271  and  _273
REMARK   96  A    between atoms: _273  and  _274
REMARK   97  A    between atoms: _273  and  _276
REMARK   98  A    between atoms: _276  and  _277
REMARK   99  A    between atoms: _280  and  _282
REMARK  100  A    between atoms: _282  and  _283
REMARK  101  A    between atoms: _282  and  _285
REMARK  102  A    between atoms: _285  and  _286
REMARK  103  A    between atoms: _288  and  _290
REMARK  104  A    between atoms: _290  and  _291
REMARK  105  A    between atoms: _290  and  _293
REMARK  106  A    between atoms: _293  and  _294
REMARK  107  A    between atoms: _297  and  _299
REMARK  108  A    between atoms: _299  and  _300
REMARK  109  A    between atoms: _299  and  _302
REMARK  110  A    between atoms: _302  and  _303
REMARK  111  A    between atoms: _306  and  _308
REMARK  112  A    between atoms: _308  and  _309
REMARK  113  A    between atoms: _308  and  _311
REMARK  114  A    between atoms: _311  and  _312
REMARK  115  A    between atoms: _316  and  _317
REMARK  116  A    between atoms: _323  and  _324
REMARK  117  A    between atoms: _329  and  _331
REMARK  118  A    between atoms: _331  and  _332
REMARK  119  A    between atoms: _331  and  _334
REMARK  120  A    between atoms: _334  and  _335
REMARK  121  A    between atoms: _338  and  _340
REMARK  122  A    between atoms: _340  and  _341
REMARK  123  A    between atoms: _340  and  _343
REMARK  124  A    between atoms: _343  and  _344
REMARK  125  A    between atoms: _347  and  _349
REMARK  126  A    between atoms: _349  and  _350
REMARK  127  A    between atoms: _349  and  _352
REMARK  128  A    between atoms: _354  and  _356
REMARK  129  A    between atoms: _356  and  _357
REMARK  130  A    between atoms: _356  and  _359
REMARK  131  A    between atoms: _362  and  _364
REMARK  132  A    between atoms: _364  and  _365
REMARK  133  A    between atoms: _364  and  _367
REMARK  134  A    between atoms: _367  and  _368
REMARK  135  A    between atoms: _378  and  _380
REMARK  136  A    between atoms: _380  and  _381
REMARK  137  A    between atoms: _380  and  _383
REMARK  138  A    between atoms: _383  and  _384
REMARK  139  A    between atoms: _389  and  _391
REMARK  140  A    between atoms: _391  and  _392
REMARK  141  A    between atoms: _391  and  _394
REMARK  142  A    between atoms: _394  and  _395
REMARK  143  A    between atoms: _395  and  _396
REMARK  144  A    between atoms: _396  and  _397
REMARK                            x       y       z     vdW  Elec       q    Type
REMARK                         _______ _______ _______ _____ _____    ______ ____
ROOT
ATOM      1  O   HOH     1      12.850   7.530   8.350  0.00  0.00    +0.000 OA
ENDROOT
TORSDOF 0
REMARK  Name = ../refined-set-2016/4q8y/4q8y_pocket.pdb
REMARK  144 active torsions:
REMARK  status: ('A' for Active; 'I' for Inactive)
REMARK    1  A    between atoms: _1  and  _3
REMARK    2  A    between atoms: _3  and  _4
REMARK    3  A    between atoms: _3  and  _6
REMARK    4  A    between atoms: _6  and  _7
REMARK    5  A    between atoms: _17  and  _19
REMARK    6  A    between atoms: _19  and  _20
REMARK    7  A    between atoms: _19  and  _22
REMARK    8  A    between atoms: _22  and  _23
REMARK    9  A    between atoms: _28  and  _29
REMARK   10  A    between atoms: _31  and  _33
REMARK   11  A    between atoms: _33  and  _34
REMARK   12  A    between atoms: _33  and  _36
REMARK   13  A    between atoms: _36  and  _37
REMARK   14  A    between atoms: _39  and  _41
REMARK   15  A    between atoms: _41  and  _42
REMARK   16  A    between atoms: _41  and  _44
REMARK   17  A    between atoms: _44  and  _45
REMARK   18  A    between atoms: _50  and  _52
REMARK   19  A    between atoms: _52  and  _53
REMARK   20  A    between atoms: _52  and  _55
REMARK   21  A    between atoms: _55  and  _56
REMARK   22  A    between atoms: _61  and  _63
REMARK   23  A    between atoms: _63  and  _64
REMARK   24  A    between atoms: _67  and  _69
REMARK   25  A    between atoms: _69  and  _70
REMARK   26  A    between atoms: _69  and  _72
REMARK   27  A    between atoms: _72  and  _73
REMARK   28  A    between atoms: _78  and  _80
REMARK   29  A    between atoms: _80  and  _81
REMARK   30  A    between atoms: _80  and  _83
REMARK   31  A    between atoms: _83  and  _84
REMARK   32  A    between atoms: _87  and  _89
REMARK   33  A    between atoms: _89  and  _90
REMARK   34  A    between atoms: _89  and  _92
REMARK   35  A    between atoms: _92  and  _93
REMARK   36  A    between atoms: _93  and  _94
REMARK   37  A    between atoms: _99  and  _101
REMARK   38  A    between atoms: _112  and  _115
REMARK   39  A    between atoms: _115  and  _116
REMARK   40  A    between atoms: _124  and  _125
REMARK   41  A    between atoms: _133  and  _135
REMARK   42  A    between atoms: _135  and  _136
REMARK   43  A    between atoms: _135  and  _138
REMARK   44  A    between atoms: _138  and  _139
REMARK   45  A    between atoms: _139  and  _140
REMARK   46  A    between atoms: _143  and  _145
REMARK   47  A    between atoms: _145  and  _146
REMARK   48  A    between atoms: _145  and  _148
REMARK   49  A    between atoms: _148  and  _149
REMARK   50  A    between atoms: _154  and  _156
REMARK   51  A    between atoms: _156  and  _157
REMARK   52  A    between atoms: _156  and  _159
REMARK   53  A    between atoms: _159  and  _160
REMARK   54  A    between atoms: _160  and  _161
REMARK   55  A    between atoms: _164  and  _166
REMARK   56  A    between atoms: _166  and  _167
REMARK   57  A    between atoms: _166  and  _169
REMARK   58  A    between atoms: _169  and  _170
REMARK   59  A    between atoms: _173  and  _175
REMARK   60  A    between atoms: _175  and  _176
REMARK   61  A    between atoms: _175  and  _178
REMARK   62  A    between atoms: _178  and  _179
REMARK   63  A    between atoms: _180  and  ZN_406
REMARK   64  A    between atoms: _184  and  _186
REMARK   65  A    between atoms: _186  and  _187
REMARK   66  A    between atoms: _186  and  _189
REMARK   67  A    between atoms: _189  and  _190
REMARK   68  A    between atoms: _193  and  _195
REMARK   69  A    between atoms: _195  and  _196
REMARK   70  A    between atoms: _195  and  _198
REMARK   71  A    between atoms: _201  and  _203
REMARK   72  A    between atoms: _203  and  _204
REMARK   73  A    between atoms: _203  and  _206
REMARK   74  A    between atoms: _206  and  _207
REMARK   75  A    between atoms: _212  and  _214
REMARK   76  A    between atoms: _214  and  _215
REMARK   77  A    between atoms: _214  and  _217
REMARK   78  A    between atoms: _217  and  _218
REMARK   79  A    between atoms: _228  and  _230
REMARK   80  A    between atoms: _230  and  _231
REMARK   81  A    between atoms: _230  and  _233
REMARK   82  A    between atoms: _233  and  _234
REMARK   83  A    between atoms: _240  and  _242
REMARK   84  A    between atoms: _242  and  _243
REMARK   85  A    between atoms: _242  and  _245
REMARK   86  A    between atoms: _248  and  _250
REMARK   87  A    between atoms: _250  and  _251
REMARK   88  A    between atoms: _250  and  _253
REMARK   89  A    between atoms: _253  and  _254
REMARK   90  A    between atoms: _257  and  _259
REMARK   91  A    between atoms: _259  and  _260
REMARK   92  A    between atoms: _263  and  _265
REMARK   93  A    between atoms: _265  and  _266
REMARK   94  A    between atoms: _265  and  _268
REMARK   95  A    between atoms: _271  and  _273
REMARK   96  A    between atoms: _273  and  _274
REMARK   97  A    between atoms: _273  and  _276
REMARK   98  A    between atoms: _276  and  _277
REMARK   99  A    between atoms: _280  and  _282
REMARK  100  A    between atoms: _282  and  _283
REMARK  101  A    between atoms: _282  and  _285
REMARK  102  A    between atoms: _285  and  _286
REMARK  103  A    between atoms: _288  and  _290
REMARK  104  A    between atoms: _290  and  _291
REMARK  105  A    between atoms: _290  and  _293
REMARK  106  A    between atoms: _293  and  _294
REMARK  107  A    between atoms: _297  and  _299
REMARK  108  A    between atoms: _299  and  _300
REMARK  109  A    between atoms: _299  and  _302
REMARK  110  A    between atoms: _302  and  _303
REMARK  111  A    between atoms: _306  and  _308
REMARK  112  A    between atoms: _308  and  _309
REMARK  113  A    between atoms: _308  and  _311
REMARK  114  A    between atoms: _311  and  _312
REMARK  115  A    between atoms: _316  and  _317
REMARK  116  A    between atoms: _323  and  _324
REMARK  117  A    between atoms: _329  and  _331
REMARK  118  A    between atoms: _331  and  _332
REMARK  119  A    between atoms: _331  and  _334
REMARK  120  A    between atoms: _334  and  _335
REMARK  121  A    between atoms: _338  and  _340
REMARK  122  A    between atoms: _340  and  _341
REMARK  123  A    between atoms: _340  and  _343
REMARK  124  A    between atoms: _343  and  _344
REMARK  125  A    between atoms: _347  and  _349
REMARK  126  A    between atoms: _349  and  _350
REMARK  127  A    between atoms: _349  and  _352
REMARK  128  A    between atoms: _354  and  _356
REMARK  129  A    between atoms: _356  and  _357
REMARK  130  A    between atoms: _356  and  _359
REMARK  131  A    between atoms: _362  and  _364
REMARK  132  A    between atoms: _364  and  _365
REMARK  133  A    between atoms: _364  and  _367
REMARK  134  A    between atoms: _367  and  _368
REMARK  135  A    between atoms: _378  and  _380
REMARK  136  A    between atoms: _380  and  _381
REMARK  137  A    between atoms: _380  and  _383
REMARK  138  A    between atoms: _383  and  _384
REMARK  139  A    between atoms: _389  and  _391
REMARK  140  A    between atoms: _391  and  _392
REMARK  141  A    between atoms: _391  and  _394
REMARK  142  A    between atoms: _394  and  _395
REMARK  143  A    between atoms: _395  and  _396
REMARK  144  A    between atoms: _396  and  _397
REMARK                            x       y       z     vdW  Elec       q    Type
REMARK                         _______ _______ _______ _____ _____    ______ ____
ROOT
ATOM      1  O   HOH     1      18.858   6.044  13.303  0.00  0.00    +0.000 OA
ENDROOT
TORSDOF 0
REMARK  Name = ../refined-set-2016/4q8y/4q8y_pocket.pdb
REMARK  144 active torsions:
REMARK  status: ('A' for Active; 'I' for Inactive)
REMARK    1  A    between atoms: _1  and  _3
REMARK    2  A    between atoms: _3  and  _4
REMARK    3  A    between atoms: _3  and  _6
REMARK    4  A    between atoms: _6  and  _7
REMARK    5  A    between atoms: _17  and  _19
REMARK    6  A    between atoms: _19  and  _20
REMARK    7  A    between atoms: _19  and  _22
REMARK    8  A    between atoms: _22  and  _23
REMARK    9  A    between atoms: _28  and  _29
REMARK   10  A    between atoms: _31  and  _33
REMARK   11  A    between atoms: _33  and  _34
REMARK   12  A    between atoms: _33  and  _36
REMARK   13  A    between atoms: _36  and  _37
REMARK   14  A    between atoms: _39  and  _41
REMARK   15  A    between atoms: _41  and  _42
REMARK   16  A    between atoms: _41  and  _44
REMARK   17  A    between atoms: _44  and  _45
REMARK   18  A    between atoms: _50  and  _52
REMARK   19  A    between atoms: _52  and  _53
REMARK   20  A    between atoms: _52  and  _55
REMARK   21  A    between atoms: _55  and  _56
REMARK   22  A    between atoms: _61  and  _63
REMARK   23  A    between atoms: _63  and  _64
REMARK   24  A    between atoms: _67  and  _69
REMARK   25  A    between atoms: _69  and  _70
REMARK   26  A    between atoms: _69  and  _72
REMARK   27  A    between atoms: _72  and  _73
REMARK   28  A    between atoms: _78  and  _80
REMARK   29  A    between atoms: _80  and  _81
REMARK   30  A    between atoms: _80  and  _83
REMARK   31  A    between atoms: _83  and  _84
REMARK   32  A    between atoms: _87  and  _89
REMARK   33  A    between atoms: _89  and  _90
REMARK   34  A    between atoms: _89  and  _92
REMARK   35  A    between atoms: _92  and  _93
REMARK   36  A    between atoms: _93  and  _94
REMARK   37  A    between atoms: _99  and  _101
REMARK   38  A    between atoms: _112  and  _115
REMARK   39  A    between atoms: _115  and  _116
REMARK   40  A    between atoms: _124  and  _125
REMARK   41  A    between atoms: _133  and  _135
REMARK   42  A    between atoms: _135  and  _136
REMARK   43  A    between atoms: _135  and  _138
REMARK   44  A    between atoms: _138  and  _139
REMARK   45  A    between atoms: _139  and  _140
REMARK   46  A    between atoms: _143  and  _145
REMARK   47  A    between atoms: _145  and  _146
REMARK   48  A    between atoms: _145  and  _148
REMARK   49  A    between atoms: _148  and  _149
REMARK   50  A    between atoms: _154  and  _156
REMARK   51  A    between atoms: _156  and  _157
REMARK   52  A    between atoms: _156  and  _159
REMARK   53  A    between atoms: _159  and  _160
REMARK   54  A    between atoms: _160  and  _161
REMARK   55  A    between atoms: _164  and  _166
REMARK   56  A    between atoms: _166  and  _167
REMARK   57  A    between atoms: _166  and  _169
REMARK   58  A    between atoms: _169  and  _170
REMARK   59  A    between atoms: _173  and  _175
REMARK   60  A    between atoms: _175  and  _176
REMARK   61  A    between atoms: _175  and  _178
REMARK   62  A    between atoms: _178  and  _179
REMARK   63  A    between atoms: _180  and  ZN_406
REMARK   64  A    between atoms: _184  and  _186
REMARK   65  A    between atoms: _186  and  _187
REMARK   66  A    between atoms: _186  and  _189
REMARK   67  A    between atoms: _189  and  _190
REMARK   68  A    between atoms: _193  and  _195
REMARK   69  A    between atoms: _195  and  _196
REMARK   70  A    between atoms: _195  and  _198
REMARK   71  A    between atoms: _201  and  _203
REMARK   72  A    between atoms: _203  and  _204
REMARK   73  A    between atoms: _203  and  _206
REMARK   74  A    between atoms: _206  and  _207
REMARK   75  A    between atoms: _212  and  _214
REMARK   76  A    between atoms: _214  and  _215
REMARK   77  A    between atoms: _214  and  _217
REMARK   78  A    between atoms: _217  and  _218
REMARK   79  A    between atoms: _228  and  _230
REMARK   80  A    between atoms: _230  and  _231
REMARK   81  A    between atoms: _230  and  _233
REMARK   82  A    between atoms: _233  and  _234
REMARK   83  A    between atoms: _240  and  _242
REMARK   84  A    between atoms: _242  and  _243
REMARK   85  A    between atoms: _242  and  _245
REMARK   86  A    between atoms: _248  and  _250
REMARK   87  A    between atoms: _250  and  _251
REMARK   88  A    between atoms: _250  and  _253
REMARK   89  A    between atoms: _253  and  _254
REMARK   90  A    between atoms: _257  and  _259
REMARK   91  A    between atoms: _259  and  _260
REMARK   92  A    between atoms: _263  and  _265
REMARK   93  A    between atoms: _265  and  _266
REMARK   94  A    between atoms: _265  and  _268
REMARK   95  A    between atoms: _271  and  _273
REMARK   96  A    between atoms: _273  and  _274
REMARK   97  A    between atoms: _273  and  _276
REMARK   98  A    between atoms: _276  and  _277
REMARK   99  A    between atoms: _280  and  _282
REMARK  100  A    between atoms: _282  and  _283
REMARK  101  A    between atoms: _282  and  _285
REMARK  102  A    between atoms: _285  and  _286
REMARK  103  A    between atoms: _288  and  _290
REMARK  104  A    between atoms: _290  and  _291
REMARK  105  A    between atoms: _290  and  _293
REMARK  106  A    between atoms: _293  and  _294
REMARK  107  A    between atoms: _297  and  _299
REMARK  108  A    between atoms: _299  and  _300
REMARK  109  A    between atoms: _299  and  _302
REMARK  110  A    between atoms: _302  and  _303
REMARK  111  A    between atoms: _306  and  _308
REMARK  112  A    between atoms: _308  and  _309
REMARK  113  A    between atoms: _308  and  _311
REMARK  114  A    between atoms: _311  and  _312
REMARK  115  A    between atoms: _316  and  _317
REMARK  116  A    between atoms: _323  and  _324
REMARK  117  A    between atoms: _329  and  _331
REMARK  118  A    between atoms: _331  and  _332
REMARK  119  A    between atoms: _331  and  _334
REMARK  120  A    between atoms: _334  and  _335
REMARK  121  A    between atoms: _338  and  _340
REMARK  122  A    between atoms: _340  and  _341
REMARK  123  A    between atoms: _340  and  _343
REMARK  124  A    between atoms: _343  and  _344
REMARK  125  A    between atoms: _347  and  _349
REMARK  126  A    between atoms: _349  and  _350
REMARK  127  A    between atoms: _349  and  _352
REMARK  128  A    between atoms: _354  and  _356
REMARK  129  A    between atoms: _356  and  _357
REMARK  130  A    between atoms: _356  and  _359
REMARK  131  A    between atoms: _362  and  _364
REMARK  132  A    between atoms: _364  and  _365
REMARK  133  A    between atoms: _364  and  _367
REMARK  134  A    between atoms: _367  and  _368
REMARK  135  A    between atoms: _378  and  _380
REMARK  136  A    between atoms: _380  and  _381
REMARK  137  A    between atoms: _380  and  _383
REMARK  138  A    between atoms: _383  and  _384
REMARK  139  A    between atoms: _389  and  _391
REMARK  140  A    between atoms: _391  and  _392
REMARK  141  A    between atoms: _391  and  _394
REMARK  142  A    between atoms: _394  and  _395
REMARK  143  A    between atoms: _395  and  _396
REMARK  144  A    between atoms: _396  and  _397
REMARK                            x       y       z     vdW  Elec       q    Type
REMARK                         _______ _______ _______ _____ _____    ______ ____
ROOT
ATOM      1  O   HOH     1      18.012   4.569   7.379  0.00  0.00    +0.000 OA
ENDROOT
TORSDOF 0
REMARK  Name = ../refined-set-2016/4q8y/4q8y_pocket.pdb
REMARK  144 active torsions:
REMARK  status: ('A' for Active; 'I' for Inactive)
REMARK    1  A    between atoms: _1  and  _3
REMARK    2  A    between atoms: _3  and  _4
REMARK    3  A    between atoms: _3  and  _6
REMARK    4  A    between atoms: _6  and  _7
REMARK    5  A    between atoms: _17  and  _19
REMARK    6  A    between atoms: _19  and  _20
REMARK    7  A    between atoms: _19  and  _22
REMARK    8  A    between atoms: _22  and  _23
REMARK    9  A    between atoms: _28  and  _29
REMARK   10  A    between atoms: _31  and  _33
REMARK   11  A    between atoms: _33  and  _34
REMARK   12  A    between atoms: _33  and  _36
REMARK   13  A    between atoms: _36  and  _37
REMARK   14  A    between atoms: _39  and  _41
REMARK   15  A    between atoms: _41  and  _42
REMARK   16  A    between atoms: _41  and  _44
REMARK   17  A    between atoms: _44  and  _45
REMARK   18  A    between atoms: _50  and  _52
REMARK   19  A    between atoms: _52  and  _53
REMARK   20  A    between atoms: _52  and  _55
REMARK   21  A    between atoms: _55  and  _56
REMARK   22  A    between atoms: _61  and  _63
REMARK   23  A    between atoms: _63  and  _64
REMARK   24  A    between atoms: _67  and  _69
REMARK   25  A    between atoms: _69  and  _70
REMARK   26  A    between atoms: _69  and  _72
REMARK   27  A    between atoms: _72  and  _73
REMARK   28  A    between atoms: _78  and  _80
REMARK   29  A    between atoms: _80  and  _81
REMARK   30  A    between atoms: _80  and  _83
REMARK   31  A    between atoms: _83  and  _84
REMARK   32  A    between atoms: _87  and  _89
REMARK   33  A    between atoms: _89  and  _90
REMARK   34  A    between atoms: _89  and  _92
REMARK   35  A    between atoms: _92  and  _93
REMARK   36  A    between atoms: _93  and  _94
REMARK   37  A    between atoms: _99  and  _101
REMARK   38  A    between atoms: _112  and  _115
REMARK   39  A    between atoms: _115  and  _116
REMARK   40  A    between atoms: _124  and  _125
REMARK   41  A    between atoms: _133  and  _135
REMARK   42  A    between atoms: _135  and  _136
REMARK   43  A    between atoms: _135  and  _138
REMARK   44  A    between atoms: _138  and  _139
REMARK   45  A    between atoms: _139  and  _140
REMARK   46  A    between atoms: _143  and  _145
REMARK   47  A    between atoms: _145  and  _146
REMARK   48  A    between atoms: _145  and  _148
REMARK   49  A    between atoms: _148  and  _149
REMARK   50  A    between atoms: _154  and  _156
REMARK   51  A    between atoms: _156  and  _157
REMARK   52  A    between atoms: _156  and  _159
REMARK   53  A    between atoms: _159  and  _160
REMARK   54  A    between atoms: _160  and  _161
REMARK   55  A    between atoms: _164  and  _166
REMARK   56  A    between atoms: _166  and  _167
REMARK   57  A    between atoms: _166  and  _169
REMARK   58  A    between atoms: _169  and  _170
REMARK   59  A    between atoms: _173  and  _175
REMARK   60  A    between atoms: _175  and  _176
REMARK   61  A    between atoms: _175  and  _178
REMARK   62  A    between atoms: _178  and  _179
REMARK   63  A    between atoms: _180  and  ZN_406
REMARK   64  A    between atoms: _184  and  _186
REMARK   65  A    between atoms: _186  and  _187
REMARK   66  A    between atoms: _186  and  _189
REMARK   67  A    between atoms: _189  and  _190
REMARK   68  A    between atoms: _193  and  _195
REMARK   69  A    between atoms: _195  and  _196
REMARK   70  A    between atoms: _195  and  _198
REMARK   71  A    between atoms: _201  and  _203
REMARK   72  A    between atoms: _203  and  _204
REMARK   73  A    between atoms: _203  and  _206
REMARK   74  A    between atoms: _206  and  _207
REMARK   75  A    between atoms: _212  and  _214
REMARK   76  A    between atoms: _214  and  _215
REMARK   77  A    between atoms: _214  and  _217
REMARK   78  A    between atoms: _217  and  _218
REMARK   79  A    between atoms: _228  and  _230
REMARK   80  A    between atoms: _230  and  _231
REMARK   81  A    between atoms: _230  and  _233
REMARK   82  A    between atoms: _233  and  _234
REMARK   83  A    between atoms: _240  and  _242
REMARK   84  A    between atoms: _242  and  _243
REMARK   85  A    between atoms: _242  and  _245
REMARK   86  A    between atoms: _248  and  _250
REMARK   87  A    between atoms: _250  and  _251
REMARK   88  A    between atoms: _250  and  _253
REMARK   89  A    between atoms: _253  and  _254
REMARK   90  A    between atoms: _257  and  _259
REMARK   91  A    between atoms: _259  and  _260
REMARK   92  A    between atoms: _263  and  _265
REMARK   93  A    between atoms: _265  and  _266
REMARK   94  A    between atoms: _265  and  _268
REMARK   95  A    between atoms: _271  and  _273
REMARK   96  A    between atoms: _273  and  _274
REMARK   97  A    between atoms: _273  and  _276
REMARK   98  A    between atoms: _276  and  _277
REMARK   99  A    between atoms: _280  and  _282
REMARK  100  A    between atoms: _282  and  _283
REMARK  101  A    between atoms: _282  and  _285
REMARK  102  A    between atoms: _285  and  _286
REMARK  103  A    between atoms: _288  and  _290
REMARK  104  A    between atoms: _290  and  _291
REMARK  105  A    between atoms: _290  and  _293
REMARK  106  A    between atoms: _293  and  _294
REMARK  107  A    between atoms: _297  and  _299
REMARK  108  A    between atoms: _299  and  _300
REMARK  109  A    between atoms: _299  and  _302
REMARK  110  A    between atoms: _302  and  _303
REMARK  111  A    between atoms: _306  and  _308
REMARK  112  A    between atoms: _308  and  _309
REMARK  113  A    between atoms: _308  and  _311
REMARK  114  A    between atoms: _311  and  _312
REMARK  115  A    between atoms: _316  and  _317
REMARK  116  A    between atoms: _323  and  _324
REMARK  117  A    between atoms: _329  and  _331
REMARK  118  A    between atoms: _331  and  _332
REMARK  119  A    between atoms: _331  and  _334
REMARK  120  A    between atoms: _334  and  _335
REMARK  121  A    between atoms: _338  and  _340
REMARK  122  A    between atoms: _340  and  _341
REMARK  123  A    between atoms: _340  and  _343
REMARK  124  A    between atoms: _343  and  _344
REMARK  125  A    between atoms: _347  and  _349
REMARK  126  A    between atoms: _349  and  _350
REMARK  127  A    between atoms: _349  and  _352
REMARK  128  A    between atoms: _354  and  _356
REMARK  129  A    between atoms: _356  and  _357
REMARK  130  A    between atoms: _356  and  _359
REMARK  131  A    between atoms: _362  and  _364
REMARK  132  A    between atoms: _364  and  _365
REMARK  133  A    between atoms: _364  and  _367
REMARK  134  A    between atoms: _367  and  _368
REMARK  135  A    between atoms: _378  and  _380
REMARK  136  A    between atoms: _380  and  _381
REMARK  137  A    between atoms: _380  and  _383
REMARK  138  A    between atoms: _383  and  _384
REMARK  139  A    between atoms: _389  and  _391
REMARK  140  A    between atoms: _391  and  _392
REMARK  141  A    between atoms: _391  and  _394
REMARK  142  A    between atoms: _394  and  _395
REMARK  143  A    between atoms: _395  and  _396
REMARK  144  A    between atoms: _396  and  _397
REMARK                            x       y       z     vdW  Elec       q    Type
REMARK                         _______ _______ _______ _____ _____    ______ ____
ROOT
ATOM      1  O   HOH     1      15.763   6.646  11.359  0.00  0.00    +0.000 OA
ENDROOT
TORSDOF 0
