REMARK  Name = ../refined-set-2016/2i4u/2i4u_pocket.pdb
REMARK  225 active torsions:
REMARK  status: ('A' for Active; 'I' for Inactive)
REMARK    1  A    between atoms: _1  and  _3
REMARK    2  A    between atoms: _3  and  _4
REMARK    3  A    between atoms: _3  and  _6
REMARK    4  A    between atoms: _6  and  _7
REMARK    5  A    between atoms: _7  and  _8
REMARK    6  A    between atoms: _8  and  _9
REMARK    7  A    between atoms: _18  and  _20
REMARK    8  A    between atoms: _20  and  _21
REMARK    9  A    between atoms: _20  and  _23
REMARK   10  A    between atoms: _23  and  _24
REMARK   11  A    between atoms: _27  and  _29
REMARK   12  A    between atoms: _29  and  _30
REMARK   13  A    between atoms: _29  and  _32
REMARK   14  A    between atoms: _32  and  _33
REMARK   15  A    between atoms: _36  and  _38
REMARK   16  A    between atoms: _38  and  _39
REMARK   17  A    between atoms: _38  and  _41
REMARK   18  A    between atoms: _41  and  _42
REMARK   19  A    between atoms: _45  and  _47
REMARK   20  A    between atoms: _47  and  _48
REMARK   21  A    between atoms: _47  and  _50
REMARK   22  A    between atoms: _50  and  _51
REMARK   23  A    between atoms: _54  and  _56
REMARK   24  A    between atoms: _56  and  _57
REMARK   25  A    between atoms: _59  and  _61
REMARK   26  A    between atoms: _61  and  _62
REMARK   27  A    between atoms: _65  and  _67
REMARK   28  A    between atoms: _67  and  _68
REMARK   29  A    between atoms: _67  and  _70
REMARK   30  A    between atoms: _70  and  _71
REMARK   31  A    between atoms: _74  and  _76
REMARK   32  A    between atoms: _76  and  _77
REMARK   33  A    between atoms: _76  and  _79
REMARK   34  A    between atoms: _79  and  _80
REMARK   35  A    between atoms: _83  and  _85
REMARK   36  A    between atoms: _85  and  _86
REMARK   37  A    between atoms: _85  and  _88
REMARK   38  A    between atoms: _88  and  _89
REMARK   39  A    between atoms: _92  and  _94
REMARK   40  A    between atoms: _94  and  _95
REMARK   41  A    between atoms: _94  and  _97
REMARK   42  A    between atoms: _100  and  _102
REMARK   43  A    between atoms: _102  and  _103
REMARK   44  A    between atoms: _102  and  _105
REMARK   45  A    between atoms: _105  and  _106
REMARK   46  A    between atoms: _106  and  _107
REMARK   47  A    between atoms: _107  and  _108
REMARK   48  A    between atoms: _108  and  _109
REMARK   49  A    between atoms: _113  and  _115
REMARK   50  A    between atoms: _115  and  _116
REMARK   51  A    between atoms: _115  and  _118
REMARK   52  A    between atoms: _118  and  _119
REMARK   53  A    between atoms: _119  and  _120
REMARK   54  A    between atoms: _122  and  _124
REMARK   55  A    between atoms: _124  and  _125
REMARK   56  A    between atoms: _124  and  _127
REMARK   57  A    between atoms: _127  and  _128
REMARK   58  A    between atoms: _131  and  _133
REMARK   59  A    between atoms: _133  and  _134
REMARK   60  A    between atoms: _136  and  _138
REMARK   61  A    between atoms: _138  and  _139
REMARK   62  A    between atoms: _141  and  _143
REMARK   63  A    between atoms: _143  and  _144
REMARK   64  A    between atoms: _143  and  _146
REMARK   65  A    between atoms: _146  and  _147
REMARK   66  A    between atoms: _150  and  _152
REMARK   67  A    between atoms: _152  and  _153
REMARK   68  A    between atoms: _155  and  _157
REMARK   69  A    between atoms: _157  and  _158
REMARK   70  A    between atoms: _160  and  _162
REMARK   71  A    between atoms: _162  and  _163
REMARK   72  A    between atoms: _162  and  _165
REMARK   73  A    between atoms: _165  and  _166
REMARK   74  A    between atoms: _169  and  _171
REMARK   75  A    between atoms: _171  and  _172
REMARK   76  A    between atoms: _171  and  _174
REMARK   77  A    between atoms: _177  and  _179
REMARK   78  A    between atoms: _179  and  _180
REMARK   79  A    between atoms: _179  and  _182
REMARK   80  A    between atoms: _182  and  _183
REMARK   81  A    between atoms: _186  and  _188
REMARK   82  A    between atoms: _188  and  _189
REMARK   83  A    between atoms: _188  and  _191
REMARK   84  A    between atoms: _191  and  _192
REMARK   85  A    between atoms: _196  and  _197
REMARK   86  A    between atoms: _202  and  _204
REMARK   87  A    between atoms: _204  and  _205
REMARK   88  A    between atoms: _204  and  _207
REMARK   89  A    between atoms: _210  and  _212
REMARK   90  A    between atoms: _212  and  _213
REMARK   91  A    between atoms: _212  and  _215
REMARK   92  A    between atoms: _215  and  _216
REMARK   93  A    between atoms: _221  and  _223
REMARK   94  A    between atoms: _223  and  _224
REMARK   95  A    between atoms: _223  and  _226
REMARK   96  A    between atoms: _226  and  _227
REMARK   97  A    between atoms: _230  and  _232
REMARK   98  A    between atoms: _232  and  _233
REMARK   99  A    between atoms: _232  and  _235
REMARK  100  A    between atoms: _235  and  _236
REMARK  101  A    between atoms: _239  and  _241
REMARK  102  A    between atoms: _241  and  _242
REMARK  103  A    between atoms: _244  and  _246
REMARK  104  A    between atoms: _246  and  _247
REMARK  105  A    between atoms: _246  and  _249
REMARK  106  A    between atoms: _249  and  _250
REMARK  107  A    between atoms: _250  and  _251
REMARK  108  A    between atoms: _251  and  _252
REMARK  109  A    between atoms: _261  and  _263
REMARK  110  A    between atoms: _263  and  _264
REMARK  111  A    between atoms: _263  and  _266
REMARK  112  A    between atoms: _266  and  _267
REMARK  113  A    between atoms: _272  and  _274
REMARK  114  A    between atoms: _274  and  _275
REMARK  115  A    between atoms: _274  and  _277
REMARK  116  A    between atoms: _277  and  _278
REMARK  117  A    between atoms: _278  and  _279
REMARK  118  A    between atoms: _279  and  _280
REMARK  119  A    between atoms: _289  and  _291
REMARK  120  A    between atoms: _291  and  _292
REMARK  121  A    between atoms: _291  and  _294
REMARK  122  A    between atoms: _294  and  _295
REMARK  123  A    between atoms: _298  and  _300
REMARK  124  A    between atoms: _300  and  _301
REMARK  125  A    between atoms: _300  and  _303
REMARK  126  A    between atoms: _303  and  _304
REMARK  127  A    between atoms: _307  and  _309
REMARK  128  A    between atoms: _309  and  _310
REMARK  129  A    between atoms: _309  and  _312
REMARK  130  A    between atoms: _312  and  _313
REMARK  131  A    between atoms: _316  and  _318
REMARK  132  A    between atoms: _318  and  _319
REMARK  133  A    between atoms: _318  and  _321
REMARK  134  A    between atoms: _321  and  _322
REMARK  135  A    between atoms: _325  and  _327
REMARK  136  A    between atoms: _327  and  _328
REMARK  137  A    between atoms: _330  and  _332
REMARK  138  A    between atoms: _332  and  _333
REMARK  139  A    between atoms: _336  and  _338
REMARK  140  A    between atoms: _338  and  _339
REMARK  141  A    between atoms: _338  and  _341
REMARK  142  A    between atoms: _341  and  _342
REMARK  143  A    between atoms: _345  and  _347
REMARK  144  A    between atoms: _347  and  _348
REMARK  145  A    between atoms: _347  and  _350
REMARK  146  A    between atoms: _350  and  _351
REMARK  147  A    between atoms: _354  and  _356
REMARK  148  A    between atoms: _356  and  _357
REMARK  149  A    between atoms: _356  and  _359
REMARK  150  A    between atoms: _359  and  _360
REMARK  151  A    between atoms: _363  and  _365
REMARK  152  A    between atoms: _365  and  _366
REMARK  153  A    between atoms: _365  and  _368
REMARK  154  A    between atoms: _371  and  _373
REMARK  155  A    between atoms: _373  and  _374
REMARK  156  A    between atoms: _373  and  _376
REMARK  157  A    between atoms: _376  and  _377
REMARK  158  A    between atoms: _377  and  _378
REMARK  159  A    between atoms: _378  and  _379
REMARK  160  A    between atoms: _379  and  _380
REMARK  161  A    between atoms: _384  and  _386
REMARK  162  A    between atoms: _386  and  _387
REMARK  163  A    between atoms: _386  and  _389
REMARK  164  A    between atoms: _389  and  _390
REMARK  165  A    between atoms: _390  and  _391
REMARK  166  A    between atoms: _393  and  _395
REMARK  167  A    between atoms: _395  and  _396
REMARK  168  A    between atoms: _395  and  _398
REMARK  169  A    between atoms: _398  and  _399
REMARK  170  A    between atoms: _402  and  _404
REMARK  171  A    between atoms: _404  and  _405
REMARK  172  A    between atoms: _407  and  _409
REMARK  173  A    between atoms: _409  and  _410
REMARK  174  A    between atoms: _412  and  _414
REMARK  175  A    between atoms: _414  and  _415
REMARK  176  A    between atoms: _414  and  _417
REMARK  177  A    between atoms: _417  and  _418
REMARK  178  A    between atoms: _421  and  _423
REMARK  179  A    between atoms: _423  and  _424
REMARK  180  A    between atoms: _426  and  _428
REMARK  181  A    between atoms: _428  and  _429
REMARK  182  A    between atoms: _431  and  _433
REMARK  183  A    between atoms: _433  and  _434
REMARK  184  A    between atoms: _433  and  _436
REMARK  185  A    between atoms: _436  and  _437
REMARK  186  A    between atoms: _443  and  _445
REMARK  187  A    between atoms: _445  and  _446
REMARK  188  A    between atoms: _445  and  _448
REMARK  189  A    between atoms: _448  and  _449
REMARK  190  A    between atoms: _452  and  _454
REMARK  191  A    between atoms: _454  and  _455
REMARK  192  A    between atoms: _454  and  _457
REMARK  193  A    between atoms: _457  and  _458
REMARK  194  A    between atoms: _461  and  _463
REMARK  195  A    between atoms: _463  and  _464
REMARK  196  A    between atoms: _463  and  _466
REMARK  197  A    between atoms: _466  and  _467
REMARK  198  A    between atoms: _471  and  _472
REMARK  199  A    between atoms: _477  and  _479
REMARK  200  A    between atoms: _479  and  _480
REMARK  201  A    between atoms: _479  and  _482
REMARK  202  A    between atoms: _485  and  _487
REMARK  203  A    between atoms: _487  and  _488
REMARK  204  A    between atoms: _487  and  _490
REMARK  205  A    between atoms: _490  and  _491
REMARK  206  A    between atoms: _496  and  _498
REMARK  207  A    between atoms: _498  and  _499
REMARK  208  A    between atoms: _498  and  _501
REMARK  209  A    between atoms: _501  and  _502
REMARK  210  A    between atoms: _505  and  _507
REMARK  211  A    between atoms: _507  and  _508
REMARK  212  A    between atoms: _507  and  _510
REMARK  213  A    between atoms: _510  and  _511
REMARK  214  A    between atoms: _514  and  _516
REMARK  215  A    between atoms: _516  and  _517
REMARK  216  A    between atoms: _519  and  _521
REMARK  217  A    between atoms: _521  and  _522
REMARK  218  A    between atoms: _521  and  _524
REMARK  219  A    between atoms: _524  and  _525
REMARK  220  A    between atoms: _525  and  _526
REMARK  221  A    between atoms: _526  and  _527
REMARK  222  A    between atoms: _536  and  _538
REMARK  223  A    between atoms: _538  and  _539
REMARK  224  A    between atoms: _538  and  _541
REMARK  225  A    between atoms: _541  and  _542
REMARK                            x       y       z     vdW  Elec       q    Type
REMARK                         _______ _______ _______ _____ _____    ______ ____
ROOT
ATOM      1  NE  ARG A   1       5.398  20.726  15.308  0.00  0.00    -0.265 N 
ATOM      2  HE  ARG A   1       4.760  20.174  15.916  0.00  0.00    +0.259 HD
ATOM      3  CZ  ARG A   1       6.466  20.114  14.807  0.00  0.00    +0.342 C 
ATOM      4  NH2 ARG A   1       6.666  18.825  15.059  0.00  0.00    -0.292 N 
ATOM      5 HH21 ARG A   1       5.988  18.299  15.646  0.00  0.00    +0.255 HD
ATOM      6 HH22 ARG A   1       7.500  18.342  14.669  0.00  0.00    +0.255 HD
ATOM      7  NH1 ARG A   1       7.321  20.781  14.032  0.00  0.00    -0.292 N 
ATOM      8 HH11 ARG A   1       7.154  21.785  13.817  0.00  0.00    +0.255 HD
ATOM      9 HH12 ARG A   1       8.155  20.298  13.642  0.00  0.00    +0.255 HD
ENDROOT
BRANCH   1  10
ATOM     10  CD  ARG A   1       5.066  22.122  15.059  0.00  0.00    +0.174 C 
BRANCH  10  11
ATOM     11  CG  ARG A   1       4.346  22.749  16.227  0.00  0.00    +0.045 C 
BRANCH  11  12
ATOM     12  CB  ARG A   1       3.983  24.173  15.892  0.00  0.00    +0.029 C 
BRANCH  12  13
ATOM     13  CA  ARG A   1       3.386  24.975  17.045  0.00  0.00    +0.133 C 
BRANCH  13  14
ATOM     14  N   ARG A   1       2.146  24.361  17.518  0.00  0.00    -0.239 NA
ATOM     15  H   ARG A   1       1.795  23.495  17.062  0.00  0.00    +0.142 HD
ENDBRANCH  13  14
BRANCH  13  16
ATOM     16  C   ARG A   1       3.040  26.374  16.537  0.00  0.00    +0.224 C 
ATOM     17  O   ARG A   1       2.075  26.540  15.787  0.00  0.00    -0.287 OA
ENDBRANCH  13  16
ENDBRANCH  12  13
ENDBRANCH  11  12
ENDBRANCH  10  11
ENDBRANCH   1  10
TORSDOF 6
REMARK  Name = ../refined-set-2016/2i4u/2i4u_pocket.pdb
REMARK  225 active torsions:
REMARK  status: ('A' for Active; 'I' for Inactive)
REMARK    1  A    between atoms: _1  and  _3
REMARK    2  A    between atoms: _3  and  _4
REMARK    3  A    between atoms: _3  and  _6
REMARK    4  A    between atoms: _6  and  _7
REMARK    5  A    between atoms: _7  and  _8
REMARK    6  A    between atoms: _8  and  _9
REMARK    7  A    between atoms: _18  and  _20
REMARK    8  A    between atoms: _20  and  _21
REMARK    9  A    between atoms: _20  and  _23
REMARK   10  A    between atoms: _23  and  _24
REMARK   11  A    between atoms: _27  and  _29
REMARK   12  A    between atoms: _29  and  _30
REMARK   13  A    between atoms: _29  and  _32
REMARK   14  A    between atoms: _32  and  _33
REMARK   15  A    between atoms: _36  and  _38
REMARK   16  A    between atoms: _38  and  _39
REMARK   17  A    between atoms: _38  and  _41
REMARK   18  A    between atoms: _41  and  _42
REMARK   19  A    between atoms: _45  and  _47
REMARK   20  A    between atoms: _47  and  _48
REMARK   21  A    between atoms: _47  and  _50
REMARK   22  A    between atoms: _50  and  _51
REMARK   23  A    between atoms: _54  and  _56
REMARK   24  A    between atoms: _56  and  _57
REMARK   25  A    between atoms: _59  and  _61
REMARK   26  A    between atoms: _61  and  _62
REMARK   27  A    between atoms: _65  and  _67
REMARK   28  A    between atoms: _67  and  _68
REMARK   29  A    between atoms: _67  and  _70
REMARK   30  A    between atoms: _70  and  _71
REMARK   31  A    between atoms: _74  and  _76
REMARK   32  A    between atoms: _76  and  _77
REMARK   33  A    between atoms: _76  and  _79
REMARK   34  A    between atoms: _79  and  _80
REMARK   35  A    between atoms: _83  and  _85
REMARK   36  A    between atoms: _85  and  _86
REMARK   37  A    between atoms: _85  and  _88
REMARK   38  A    between atoms: _88  and  _89
REMARK   39  A    between atoms: _92  and  _94
REMARK   40  A    between atoms: _94  and  _95
REMARK   41  A    between atoms: _94  and  _97
REMARK   42  A    between atoms: _100  and  _102
REMARK   43  A    between atoms: _102  and  _103
REMARK   44  A    between atoms: _102  and  _105
REMARK   45  A    between atoms: _105  and  _106
REMARK   46  A    between atoms: _106  and  _107
REMARK   47  A    between atoms: _107  and  _108
REMARK   48  A    between atoms: _108  and  _109
REMARK   49  A    between atoms: _113  and  _115
REMARK   50  A    between atoms: _115  and  _116
REMARK   51  A    between atoms: _115  and  _118
REMARK   52  A    between atoms: _118  and  _119
REMARK   53  A    between atoms: _119  and  _120
REMARK   54  A    between atoms: _122  and  _124
REMARK   55  A    between atoms: _124  and  _125
REMARK   56  A    between atoms: _124  and  _127
REMARK   57  A    between atoms: _127  and  _128
REMARK   58  A    between atoms: _131  and  _133
REMARK   59  A    between atoms: _133  and  _134
REMARK   60  A    between atoms: _136  and  _138
REMARK   61  A    between atoms: _138  and  _139
REMARK   62  A    between atoms: _141  and  _143
REMARK   63  A    between atoms: _143  and  _144
REMARK   64  A    between atoms: _143  and  _146
REMARK   65  A    between atoms: _146  and  _147
REMARK   66  A    between atoms: _150  and  _152
REMARK   67  A    between atoms: _152  and  _153
REMARK   68  A    between atoms: _155  and  _157
REMARK   69  A    between atoms: _157  and  _158
REMARK   70  A    between atoms: _160  and  _162
REMARK   71  A    between atoms: _162  and  _163
REMARK   72  A    between atoms: _162  and  _165
REMARK   73  A    between atoms: _165  and  _166
REMARK   74  A    between atoms: _169  and  _171
REMARK   75  A    between atoms: _171  and  _172
REMARK   76  A    between atoms: _171  and  _174
REMARK   77  A    between atoms: _177  and  _179
REMARK   78  A    between atoms: _179  and  _180
REMARK   79  A    between atoms: _179  and  _182
REMARK   80  A    between atoms: _182  and  _183
REMARK   81  A    between atoms: _186  and  _188
REMARK   82  A    between atoms: _188  and  _189
REMARK   83  A    between atoms: _188  and  _191
REMARK   84  A    between atoms: _191  and  _192
REMARK   85  A    between atoms: _196  and  _197
REMARK   86  A    between atoms: _202  and  _204
REMARK   87  A    between atoms: _204  and  _205
REMARK   88  A    between atoms: _204  and  _207
REMARK   89  A    between atoms: _210  and  _212
REMARK   90  A    between atoms: _212  and  _213
REMARK   91  A    between atoms: _212  and  _215
REMARK   92  A    between atoms: _215  and  _216
REMARK   93  A    between atoms: _221  and  _223
REMARK   94  A    between atoms: _223  and  _224
REMARK   95  A    between atoms: _223  and  _226
REMARK   96  A    between atoms: _226  and  _227
REMARK   97  A    between atoms: _230  and  _232
REMARK   98  A    between atoms: _232  and  _233
REMARK   99  A    between atoms: _232  and  _235
REMARK  100  A    between atoms: _235  and  _236
REMARK  101  A    between atoms: _239  and  _241
REMARK  102  A    between atoms: _241  and  _242
REMARK  103  A    between atoms: _244  and  _246
REMARK  104  A    between atoms: _246  and  _247
REMARK  105  A    between atoms: _246  and  _249
REMARK  106  A    between atoms: _249  and  _250
REMARK  107  A    between atoms: _250  and  _251
REMARK  108  A    between atoms: _251  and  _252
REMARK  109  A    between atoms: _261  and  _263
REMARK  110  A    between atoms: _263  and  _264
REMARK  111  A    between atoms: _263  and  _266
REMARK  112  A    between atoms: _266  and  _267
REMARK  113  A    between atoms: _272  and  _274
REMARK  114  A    between atoms: _274  and  _275
REMARK  115  A    between atoms: _274  and  _277
REMARK  116  A    between atoms: _277  and  _278
REMARK  117  A    between atoms: _278  and  _279
REMARK  118  A    between atoms: _279  and  _280
REMARK  119  A    between atoms: _289  and  _291
REMARK  120  A    between atoms: _291  and  _292
REMARK  121  A    between atoms: _291  and  _294
REMARK  122  A    between atoms: _294  and  _295
REMARK  123  A    between atoms: _298  and  _300
REMARK  124  A    between atoms: _300  and  _301
REMARK  125  A    between atoms: _300  and  _303
REMARK  126  A    between atoms: _303  and  _304
REMARK  127  A    between atoms: _307  and  _309
REMARK  128  A    between atoms: _309  and  _310
REMARK  129  A    between atoms: _309  and  _312
REMARK  130  A    between atoms: _312  and  _313
REMARK  131  A    between atoms: _316  and  _318
REMARK  132  A    between atoms: _318  and  _319
REMARK  133  A    between atoms: _318  and  _321
REMARK  134  A    between atoms: _321  and  _322
REMARK  135  A    between atoms: _325  and  _327
REMARK  136  A    between atoms: _327  and  _328
REMARK  137  A    between atoms: _330  and  _332
REMARK  138  A    between atoms: _332  and  _333
REMARK  139  A    between atoms: _336  and  _338
REMARK  140  A    between atoms: _338  and  _339
REMARK  141  A    between atoms: _338  and  _341
REMARK  142  A    between atoms: _341  and  _342
REMARK  143  A    between atoms: _345  and  _347
REMARK  144  A    between atoms: _347  and  _348
REMARK  145  A    between atoms: _347  and  _350
REMARK  146  A    between atoms: _350  and  _351
REMARK  147  A    between atoms: _354  and  _356
REMARK  148  A    between atoms: _356  and  _357
REMARK  149  A    between atoms: _356  and  _359
REMARK  150  A    between atoms: _359  and  _360
REMARK  151  A    between atoms: _363  and  _365
REMARK  152  A    between atoms: _365  and  _366
REMARK  153  A    between atoms: _365  and  _368
REMARK  154  A    between atoms: _371  and  _373
REMARK  155  A    between atoms: _373  and  _374
REMARK  156  A    between atoms: _373  and  _376
REMARK  157  A    between atoms: _376  and  _377
REMARK  158  A    between atoms: _377  and  _378
REMARK  159  A    between atoms: _378  and  _379
REMARK  160  A    between atoms: _379  and  _380
REMARK  161  A    between atoms: _384  and  _386
REMARK  162  A    between atoms: _386  and  _387
REMARK  163  A    between atoms: _386  and  _389
REMARK  164  A    between atoms: _389  and  _390
REMARK  165  A    between atoms: _390  and  _391
REMARK  166  A    between atoms: _393  and  _395
REMARK  167  A    between atoms: _395  and  _396
REMARK  168  A    between atoms: _395  and  _398
REMARK  169  A    between atoms: _398  and  _399
REMARK  170  A    between atoms: _402  and  _404
REMARK  171  A    between atoms: _404  and  _405
REMARK  172  A    between atoms: _407  and  _409
REMARK  173  A    between atoms: _409  and  _410
REMARK  174  A    between atoms: _412  and  _414
REMARK  175  A    between atoms: _414  and  _415
REMARK  176  A    between atoms: _414  and  _417
REMARK  177  A    between atoms: _417  and  _418
REMARK  178  A    between atoms: _421  and  _423
REMARK  179  A    between atoms: _423  and  _424
REMARK  180  A    between atoms: _426  and  _428
REMARK  181  A    between atoms: _428  and  _429
REMARK  182  A    between atoms: _431  and  _433
REMARK  183  A    between atoms: _433  and  _434
REMARK  184  A    between atoms: _433  and  _436
REMARK  185  A    between atoms: _436  and  _437
REMARK  186  A    between atoms: _443  and  _445
REMARK  187  A    between atoms: _445  and  _446
REMARK  188  A    between atoms: _445  and  _448
REMARK  189  A    between atoms: _448  and  _449
REMARK  190  A    between atoms: _452  and  _454
REMARK  191  A    between atoms: _454  and  _455
REMARK  192  A    between atoms: _454  and  _457
REMARK  193  A    between atoms: _457  and  _458
REMARK  194  A    between atoms: _461  and  _463
REMARK  195  A    between atoms: _463  and  _464
REMARK  196  A    between atoms: _463  and  _466
REMARK  197  A    between atoms: _466  and  _467
REMARK  198  A    between atoms: _471  and  _472
REMARK  199  A    between atoms: _477  and  _479
REMARK  200  A    between atoms: _479  and  _480
REMARK  201  A    between atoms: _479  and  _482
REMARK  202  A    between atoms: _485  and  _487
REMARK  203  A    between atoms: _487  and  _488
REMARK  204  A    between atoms: _487  and  _490
REMARK  205  A    between atoms: _490  and  _491
REMARK  206  A    between atoms: _496  and  _498
REMARK  207  A    between atoms: _498  and  _499
REMARK  208  A    between atoms: _498  and  _501
REMARK  209  A    between atoms: _501  and  _502
REMARK  210  A    between atoms: _505  and  _507
REMARK  211  A    between atoms: _507  and  _508
REMARK  212  A    between atoms: _507  and  _510
REMARK  213  A    between atoms: _510  and  _511
REMARK  214  A    between atoms: _514  and  _516
REMARK  215  A    between atoms: _516  and  _517
REMARK  216  A    between atoms: _519  and  _521
REMARK  217  A    between atoms: _521  and  _522
REMARK  218  A    between atoms: _521  and  _524
REMARK  219  A    between atoms: _524  and  _525
REMARK  220  A    between atoms: _525  and  _526
REMARK  221  A    between atoms: _526  and  _527
REMARK  222  A    between atoms: _536  and  _538
REMARK  223  A    between atoms: _538  and  _539
REMARK  224  A    between atoms: _538  and  _541
REMARK  225  A    between atoms: _541  and  _542
REMARK                            x       y       z     vdW  Elec       q    Type
REMARK                         _______ _______ _______ _____ _____    ______ ____
ROOT
ATOM      1  C   GLY A   5      16.293  28.479  19.704  0.00  0.00    +0.243 C 
ATOM      2  O   GLY A   5      17.373  27.889  19.796  0.00  0.00    -0.273 OA
ATOM      3  N   ALA A   6      15.939  29.178  18.628  0.00  0.00    -0.297 N 
ATOM      4  H   ALA A   6      15.005  29.636  18.609  0.00  0.00    +0.150 HD
ENDROOT
BRANCH   3   5
ATOM      5  CA  ALA A   6      16.821  29.321  17.475  0.00  0.00    +0.149 C 
ATOM      6  CB  ALA A   6      16.035  29.127  16.197  0.00  0.00    +0.031 C 
BRANCH   5   7
ATOM      7  C   ALA A   6      17.498  30.686  17.456  0.00  0.00    +0.241 C 
ATOM      8  O   ALA A   6      16.817  31.711  17.451  0.00  0.00    -0.273 OA
ATOM      9  N   ASP A   7      18.830  30.699  17.431  0.00  0.00    -0.297 N 
ATOM     10  H   ASP A   7      19.351  29.799  17.443  0.00  0.00    +0.150 HD
BRANCH   9  11
ATOM     11  CA  ASP A   7      19.572  31.959  17.387  0.00  0.00    +0.160 C 
BRANCH  11  12
ATOM     12  C   ASP A   7      19.311  32.645  16.046  0.00  0.00    +0.241 C 
ATOM     13  O   ASP A   7      19.090  33.856  15.978  0.00  0.00    -0.273 OA
ATOM     14  N   ASP A   8      19.329  31.849  14.982  0.00  0.00    -0.297 N 
ATOM     15  H   ASP A   8      19.497  30.832  15.118  0.00  0.00    +0.150 HD
BRANCH  14  16
ATOM     16  CA  ASP A   8      19.122  32.354  13.634  0.00  0.00    +0.160 C 
BRANCH  16  17
ATOM     17  C   ASP A   8      17.947  31.729  12.897  0.00  0.00    +0.241 C 
ATOM     18  O   ASP A   8      17.428  30.680  13.281  0.00  0.00    -0.273 OA
ATOM     19  N   THR A   9      17.536  32.407  11.831  0.00  0.00    -0.295 N 
ATOM     20  H   THR A   9      18.009  33.304  11.601  0.00  0.00    +0.150 HD
BRANCH  19  21
ATOM     21  CA  THR A   9      16.456  31.952  10.972  0.00  0.00    +0.176 C 
BRANCH  21  22
ATOM     22  C   THR A   9      17.077  30.957   9.990  0.00  0.00    +0.243 C 
ATOM     23  N   VAL A  10      16.443  29.797   9.832  0.00  0.00    -0.298 N 
ATOM     24  H   VAL A  10      15.566  29.622  10.363  0.00  0.00    +0.150 HD
ATOM     25  O   THR A   9      18.133  31.230   9.414  0.00  0.00    -0.273 OA
BRANCH  23  26
ATOM     26  CA  VAL A  10      16.948  28.765   8.933  0.00  0.00    +0.137 C 
BRANCH  26  27
ATOM     27  CB  VAL A  10      17.477  27.528   9.713  0.00  0.00    +0.026 C 
ATOM     28  CG2 VAL A  10      18.277  27.951  10.941  0.00  0.00    +0.002 C 
ATOM     29  CG1 VAL A  10      18.320  26.655   8.791  0.00  0.00    +0.002 C 
ENDBRANCH  26  27
BRANCH  26  30
ATOM     30  C   VAL A  10      15.824  28.308   8.014  0.00  0.00    +0.227 C 
ATOM     31  O   VAL A  10      14.796  27.830   8.484  0.00  0.00    -0.286 OA
ENDBRANCH  26  30
ENDBRANCH  23  26
ENDBRANCH  21  22
BRANCH  21  32
ATOM     32  CB  THR A   9      15.859  33.136  10.205  0.00  0.00    +0.137 C 
ATOM     33  CG2 THR A   9      14.957  32.658   9.083  0.00  0.00    +0.034 C 
BRANCH  32  34
ATOM     34  OG1 THR A   9      15.112  33.954  11.113  0.00  0.00    -0.382 OA
ATOM     35  HG1 THR A   9      14.724  34.721  10.622  0.00  0.00    +0.210 HD
ENDBRANCH  32  34
ENDBRANCH  21  32
ENDBRANCH  19  21
ENDBRANCH  16  17
BRANCH  16  36
ATOM     36  CB  ASP A   8      20.383  32.136  12.795  0.00  0.00    +0.143 C 
BRANCH  36  37
ATOM     37  CG  ASP A   8      21.540  33.004  13.241  0.00  0.00    +0.367 C 
ATOM     38  OD2 ASP A   8      22.477  32.455  13.858  0.00  0.00    -0.246 OA
ATOM     39  OD1 ASP A   8      21.517  34.228  12.972  0.00  0.00    -0.246 OA
ENDBRANCH  36  37
ENDBRANCH  16  36
ENDBRANCH  14  16
ENDBRANCH  11  12
BRANCH  11  40
ATOM     40  CB  ASP A   7      21.080  31.714  17.518  0.00  0.00    +0.143 C 
BRANCH  40  41
ATOM     41  CG  ASP A   7      21.478  31.107  18.855  0.00  0.00    +0.367 C 
ATOM     42  OD2 ASP A   7      20.718  31.213  19.843  0.00  0.00    -0.246 OA
ATOM     43  OD1 ASP A   7      22.578  30.522  18.910  0.00  0.00    -0.246 OA
ENDBRANCH  40  41
ENDBRANCH  11  40
ENDBRANCH   9  11
ENDBRANCH   5   7
ENDBRANCH   3   5
BRANCH   1  44
ATOM     44  CA  GLY A   5      15.275  28.417  20.832  0.00  0.00    +0.176 C 
BRANCH  44  47
ATOM     45  C   THR A   4      14.069  30.521  20.906  0.00  0.00    +0.243 C 
ATOM     46  O   THR A   4      15.001  31.088  21.473  0.00  0.00    -0.273 OA
ATOM     47  N   GLY A   5      14.097  29.230  20.575  0.00  0.00    -0.295 N 
ATOM     48  H   GLY A   5      13.264  28.798  20.126  0.00  0.00    +0.150 HD
BRANCH  45  49
ATOM     49  CA  THR A   4      12.782  31.283  20.572  0.00  0.00    +0.176 C 
BRANCH  49  51
ATOM     50  C   ASP A   3      12.321  30.473  18.317  0.00  0.00    +0.241 C 
ATOM     51  N   THR A   4      11.964  30.565  19.598  0.00  0.00    -0.295 N 
ATOM     52  H   THR A   4      11.081  30.114  19.912  0.00  0.00    +0.150 HD
ATOM     53  O   ASP A   3      13.391  30.902  17.889  0.00  0.00    -0.273 OA
BRANCH  50  54
ATOM     54  CA  ASP A   3      11.383  29.684  17.401  0.00  0.00    +0.160 C 
BRANCH  54  57
ATOM     55  C   LEU A   2       9.213  30.453  16.626  0.00  0.00    +0.241 C 
ATOM     56  O   LEU A   2       8.616  29.904  17.553  0.00  0.00    -0.273 OA
ATOM     57  N   ASP A   3      10.534  30.458  16.509  0.00  0.00    -0.297 N 
ATOM     58  H   ASP A   3      10.974  31.030  15.760  0.00  0.00    +0.150 HD
BRANCH  55  59
ATOM     59  CA  LEU A   2       8.453  31.210  15.548  0.00  0.00    +0.149 C 
BRANCH  59  61
ATOM     60  C   LEU A   1       8.706  29.451  13.842  0.00  0.00    +0.238 C 
ATOM     61  N   LEU A   2       7.925  30.145  14.679  0.00  0.00    -0.297 N 
ATOM     62  H   LEU A   2       6.909  29.924  14.717  0.00  0.00    +0.150 HD
ATOM     63  O   LEU A   1       9.899  29.700  13.681  0.00  0.00    -0.274 OA
BRANCH  60  64
ATOM     64  CA  LEU A   1       8.043  28.332  13.030  0.00  0.00    +0.145 C 
BRANCH  64  65
ATOM     65  N   LEU A   1       8.265  28.455  11.597  0.00  0.00    -0.238 NA
ATOM     66  H   LEU A   1       9.167  28.121  11.202  0.00  0.00    +0.142 HD
ENDBRANCH  64  65
BRANCH  64  67
ATOM     67  CB  LEU A   1       8.589  26.975  13.480  0.00  0.00    +0.026 C 
BRANCH  67  68
ATOM     68  CG  LEU A   1       8.476  26.527  14.930  0.00  0.00    +0.002 C 
ATOM     69  CD2 LEU A   1       7.025  26.365  15.319  0.00  0.00    +0.000 C 
ATOM     70  CD1 LEU A   1       9.213  25.209  15.079  0.00  0.00    +0.000 C 
ENDBRANCH  67  68
ENDBRANCH  64  67
ENDBRANCH  60  64
ENDBRANCH  59  61
BRANCH  59  71
ATOM     71  CB  LEU A   2       7.321  32.018  16.184  0.00  0.00    +0.029 C 
BRANCH  71  72
ATOM     72  CG  LEU A   2       6.423  32.813  15.239  0.00  0.00    +0.002 C 
ATOM     73  CD2 LEU A   2       5.302  33.467  16.030  0.00  0.00    +0.000 C 
ATOM     74  CD1 LEU A   2       7.241  33.854  14.496  0.00  0.00    +0.000 C 
ENDBRANCH  71  72
ENDBRANCH  59  71
ENDBRANCH  55  59
ENDBRANCH  54  57
BRANCH  54  75
ATOM     75  CB  ASP A   3      12.194  28.733  16.523  0.00  0.00    +0.143 C 
BRANCH  75  76
ATOM     76  CG  ASP A   3      12.839  27.609  17.295  0.00  0.00    +0.367 C 
ATOM     77  OD2 ASP A   3      12.897  27.651  18.541  0.00  0.00    -0.246 OA
ATOM     78  OD1 ASP A   3      13.295  26.665  16.623  0.00  0.00    -0.246 OA
ENDBRANCH  75  76
ENDBRANCH  54  75
ENDBRANCH  50  54
ENDBRANCH  49  51
BRANCH  49  79
ATOM     79  CB  THR A   4      12.009  31.569  21.884  0.00  0.00    +0.137 C 
ATOM     80  CG2 THR A   4      10.779  32.428  21.606  0.00  0.00    +0.034 C 
BRANCH  79  81
ATOM     81  OG1 THR A   4      11.596  30.339  22.487  0.00  0.00    -0.382 OA
ATOM     82  HG1 THR A   4      12.393  29.789  22.691  0.00  0.00    +0.210 HD
ENDBRANCH  79  81
ENDBRANCH  49  79
ENDBRANCH  45  49
ENDBRANCH  44  47
ENDBRANCH   1  44
TORSDOF 35
REMARK  Name = ../refined-set-2016/2i4u/2i4u_pocket.pdb
REMARK  225 active torsions:
REMARK  status: ('A' for Active; 'I' for Inactive)
REMARK    1  A    between atoms: _1  and  _3
REMARK    2  A    between atoms: _3  and  _4
REMARK    3  A    between atoms: _3  and  _6
REMARK    4  A    between atoms: _6  and  _7
REMARK    5  A    between atoms: _7  and  _8
REMARK    6  A    between atoms: _8  and  _9
REMARK    7  A    between atoms: _18  and  _20
REMARK    8  A    between atoms: _20  and  _21
REMARK    9  A    between atoms: _20  and  _23
REMARK   10  A    between atoms: _23  and  _24
REMARK   11  A    between atoms: _27  and  _29
REMARK   12  A    between atoms: _29  and  _30
REMARK   13  A    between atoms: _29  and  _32
REMARK   14  A    between atoms: _32  and  _33
REMARK   15  A    between atoms: _36  and  _38
REMARK   16  A    between atoms: _38  and  _39
REMARK   17  A    between atoms: _38  and  _41
REMARK   18  A    between atoms: _41  and  _42
REMARK   19  A    between atoms: _45  and  _47
REMARK   20  A    between atoms: _47  and  _48
REMARK   21  A    between atoms: _47  and  _50
REMARK   22  A    between atoms: _50  and  _51
REMARK   23  A    between atoms: _54  and  _56
REMARK   24  A    between atoms: _56  and  _57
REMARK   25  A    between atoms: _59  and  _61
REMARK   26  A    between atoms: _61  and  _62
REMARK   27  A    between atoms: _65  and  _67
REMARK   28  A    between atoms: _67  and  _68
REMARK   29  A    between atoms: _67  and  _70
REMARK   30  A    between atoms: _70  and  _71
REMARK   31  A    between atoms: _74  and  _76
REMARK   32  A    between atoms: _76  and  _77
REMARK   33  A    between atoms: _76  and  _79
REMARK   34  A    between atoms: _79  and  _80
REMARK   35  A    between atoms: _83  and  _85
REMARK   36  A    between atoms: _85  and  _86
REMARK   37  A    between atoms: _85  and  _88
REMARK   38  A    between atoms: _88  and  _89
REMARK   39  A    between atoms: _92  and  _94
REMARK   40  A    between atoms: _94  and  _95
REMARK   41  A    between atoms: _94  and  _97
REMARK   42  A    between atoms: _100  and  _102
REMARK   43  A    between atoms: _102  and  _103
REMARK   44  A    between atoms: _102  and  _105
REMARK   45  A    between atoms: _105  and  _106
REMARK   46  A    between atoms: _106  and  _107
REMARK   47  A    between atoms: _107  and  _108
REMARK   48  A    between atoms: _108  and  _109
REMARK   49  A    between atoms: _113  and  _115
REMARK   50  A    between atoms: _115  and  _116
REMARK   51  A    between atoms: _115  and  _118
REMARK   52  A    between atoms: _118  and  _119
REMARK   53  A    between atoms: _119  and  _120
REMARK   54  A    between atoms: _122  and  _124
REMARK   55  A    between atoms: _124  and  _125
REMARK   56  A    between atoms: _124  and  _127
REMARK   57  A    between atoms: _127  and  _128
REMARK   58  A    between atoms: _131  and  _133
REMARK   59  A    between atoms: _133  and  _134
REMARK   60  A    between atoms: _136  and  _138
REMARK   61  A    between atoms: _138  and  _139
REMARK   62  A    between atoms: _141  and  _143
REMARK   63  A    between atoms: _143  and  _144
REMARK   64  A    between atoms: _143  and  _146
REMARK   65  A    between atoms: _146  and  _147
REMARK   66  A    between atoms: _150  and  _152
REMARK   67  A    between atoms: _152  and  _153
REMARK   68  A    between atoms: _155  and  _157
REMARK   69  A    between atoms: _157  and  _158
REMARK   70  A    between atoms: _160  and  _162
REMARK   71  A    between atoms: _162  and  _163
REMARK   72  A    between atoms: _162  and  _165
REMARK   73  A    between atoms: _165  and  _166
REMARK   74  A    between atoms: _169  and  _171
REMARK   75  A    between atoms: _171  and  _172
REMARK   76  A    between atoms: _171  and  _174
REMARK   77  A    between atoms: _177  and  _179
REMARK   78  A    between atoms: _179  and  _180
REMARK   79  A    between atoms: _179  and  _182
REMARK   80  A    between atoms: _182  and  _183
REMARK   81  A    between atoms: _186  and  _188
REMARK   82  A    between atoms: _188  and  _189
REMARK   83  A    between atoms: _188  and  _191
REMARK   84  A    between atoms: _191  and  _192
REMARK   85  A    between atoms: _196  and  _197
REMARK   86  A    between atoms: _202  and  _204
REMARK   87  A    between atoms: _204  and  _205
REMARK   88  A    between atoms: _204  and  _207
REMARK   89  A    between atoms: _210  and  _212
REMARK   90  A    between atoms: _212  and  _213
REMARK   91  A    between atoms: _212  and  _215
REMARK   92  A    between atoms: _215  and  _216
REMARK   93  A    between atoms: _221  and  _223
REMARK   94  A    between atoms: _223  and  _224
REMARK   95  A    between atoms: _223  and  _226
REMARK   96  A    between atoms: _226  and  _227
REMARK   97  A    between atoms: _230  and  _232
REMARK   98  A    between atoms: _232  and  _233
REMARK   99  A    between atoms: _232  and  _235
REMARK  100  A    between atoms: _235  and  _236
REMARK  101  A    between atoms: _239  and  _241
REMARK  102  A    between atoms: _241  and  _242
REMARK  103  A    between atoms: _244  and  _246
REMARK  104  A    between atoms: _246  and  _247
REMARK  105  A    between atoms: _246  and  _249
REMARK  106  A    between atoms: _249  and  _250
REMARK  107  A    between atoms: _250  and  _251
REMARK  108  A    between atoms: _251  and  _252
REMARK  109  A    between atoms: _261  and  _263
REMARK  110  A    between atoms: _263  and  _264
REMARK  111  A    between atoms: _263  and  _266
REMARK  112  A    between atoms: _266  and  _267
REMARK  113  A    between atoms: _272  and  _274
REMARK  114  A    between atoms: _274  and  _275
REMARK  115  A    between atoms: _274  and  _277
REMARK  116  A    between atoms: _277  and  _278
REMARK  117  A    between atoms: _278  and  _279
REMARK  118  A    between atoms: _279  and  _280
REMARK  119  A    between atoms: _289  and  _291
REMARK  120  A    between atoms: _291  and  _292
REMARK  121  A    between atoms: _291  and  _294
REMARK  122  A    between atoms: _294  and  _295
REMARK  123  A    between atoms: _298  and  _300
REMARK  124  A    between atoms: _300  and  _301
REMARK  125  A    between atoms: _300  and  _303
REMARK  126  A    between atoms: _303  and  _304
REMARK  127  A    between atoms: _307  and  _309
REMARK  128  A    between atoms: _309  and  _310
REMARK  129  A    between atoms: _309  and  _312
REMARK  130  A    between atoms: _312  and  _313
REMARK  131  A    between atoms: _316  and  _318
REMARK  132  A    between atoms: _318  and  _319
REMARK  133  A    between atoms: _318  and  _321
REMARK  134  A    between atoms: _321  and  _322
REMARK  135  A    between atoms: _325  and  _327
REMARK  136  A    between atoms: _327  and  _328
REMARK  137  A    between atoms: _330  and  _332
REMARK  138  A    between atoms: _332  and  _333
REMARK  139  A    between atoms: _336  and  _338
REMARK  140  A    between atoms: _338  and  _339
REMARK  141  A    between atoms: _338  and  _341
REMARK  142  A    between atoms: _341  and  _342
REMARK  143  A    between atoms: _345  and  _347
REMARK  144  A    between atoms: _347  and  _348
REMARK  145  A    between atoms: _347  and  _350
REMARK  146  A    between atoms: _350  and  _351
REMARK  147  A    between atoms: _354  and  _356
REMARK  148  A    between atoms: _356  and  _357
REMARK  149  A    between atoms: _356  and  _359
REMARK  150  A    between atoms: _359  and  _360
REMARK  151  A    between atoms: _363  and  _365
REMARK  152  A    between atoms: _365  and  _366
REMARK  153  A    between atoms: _365  and  _368
REMARK  154  A    between atoms: _371  and  _373
REMARK  155  A    between atoms: _373  and  _374
REMARK  156  A    between atoms: _373  and  _376
REMARK  157  A    between atoms: _376  and  _377
REMARK  158  A    between atoms: _377  and  _378
REMARK  159  A    between atoms: _378  and  _379
REMARK  160  A    between atoms: _379  and  _380
REMARK  161  A    between atoms: _384  and  _386
REMARK  162  A    between atoms: _386  and  _387
REMARK  163  A    between atoms: _386  and  _389
REMARK  164  A    between atoms: _389  and  _390
REMARK  165  A    between atoms: _390  and  _391
REMARK  166  A    between atoms: _393  and  _395
REMARK  167  A    between atoms: _395  and  _396
REMARK  168  A    between atoms: _395  and  _398
REMARK  169  A    between atoms: _398  and  _399
REMARK  170  A    between atoms: _402  and  _404
REMARK  171  A    between atoms: _404  and  _405
REMARK  172  A    between atoms: _407  and  _409
REMARK  173  A    between atoms: _409  and  _410
REMARK  174  A    between atoms: _412  and  _414
REMARK  175  A    between atoms: _414  and  _415
REMARK  176  A    between atoms: _414  and  _417
REMARK  177  A    between atoms: _417  and  _418
REMARK  178  A    between atoms: _421  and  _423
REMARK  179  A    between atoms: _423  and  _424
REMARK  180  A    between atoms: _426  and  _428
REMARK  181  A    between atoms: _428  and  _429
REMARK  182  A    between atoms: _431  and  _433
REMARK  183  A    between atoms: _433  and  _434
REMARK  184  A    between atoms: _433  and  _436
REMARK  185  A    between atoms: _436  and  _437
REMARK  186  A    between atoms: _443  and  _445
REMARK  187  A    between atoms: _445  and  _446
REMARK  188  A    between atoms: _445  and  _448
REMARK  189  A    between atoms: _448  and  _449
REMARK  190  A    between atoms: _452  and  _454
REMARK  191  A    between atoms: _454  and  _455
REMARK  192  A    between atoms: _454  and  _457
REMARK  193  A    between atoms: _457  and  _458
REMARK  194  A    between atoms: _461  and  _463
REMARK  195  A    between atoms: _463  and  _464
REMARK  196  A    between atoms: _463  and  _466
REMARK  197  A    between atoms: _466  and  _467
REMARK  198  A    between atoms: _471  and  _472
REMARK  199  A    between atoms: _477  and  _479
REMARK  200  A    between atoms: _479  and  _480
REMARK  201  A    between atoms: _479  and  _482
REMARK  202  A    between atoms: _485  and  _487
REMARK  203  A    between atoms: _487  and  _488
REMARK  204  A    between atoms: _487  and  _490
REMARK  205  A    between atoms: _490  and  _491
REMARK  206  A    between atoms: _496  and  _498
REMARK  207  A    between atoms: _498  and  _499
REMARK  208  A    between atoms: _498  and  _501
REMARK  209  A    between atoms: _501  and  _502
REMARK  210  A    between atoms: _505  and  _507
REMARK  211  A    between atoms: _507  and  _508
REMARK  212  A    between atoms: _507  and  _510
REMARK  213  A    between atoms: _510  and  _511
REMARK  214  A    between atoms: _514  and  _516
REMARK  215  A    between atoms: _516  and  _517
REMARK  216  A    between atoms: _519  and  _521
REMARK  217  A    between atoms: _521  and  _522
REMARK  218  A    between atoms: _521  and  _524
REMARK  219  A    between atoms: _524  and  _525
REMARK  220  A    between atoms: _525  and  _526
REMARK  221  A    between atoms: _526  and  _527
REMARK  222  A    between atoms: _536  and  _538
REMARK  223  A    between atoms: _538  and  _539
REMARK  224  A    between atoms: _538  and  _541
REMARK  225  A    between atoms: _541  and  _542
REMARK                            x       y       z     vdW  Elec       q    Type
REMARK                         _______ _______ _______ _____ _____    ______ ____
ROOT
ATOM      1  C   ILE A   3      24.384  23.592  13.242  0.00  0.00    +0.241 C 
ATOM      2  N   GLY A   4      24.432  23.524  14.568  0.00  0.00    -0.295 N 
ATOM      3  H   GLY A   4      24.731  24.353  15.119  0.00  0.00    +0.150 HD
ATOM      4  O   ILE A   3      24.028  22.647  12.530  0.00  0.00    -0.273 OA
ENDROOT
BRANCH   2   5
ATOM      5  CA  GLY A   4      24.069  22.299  15.247  0.00  0.00    +0.176 C 
BRANCH   5   6
ATOM      6  C   GLY A   4      22.820  22.373  16.092  0.00  0.00    +0.243 C 
ATOM      7  O   GLY A   4      22.449  23.429  16.604  0.00  0.00    -0.273 OA
ATOM      8  N   GLY A   5      22.184  21.220  16.246  0.00  0.00    -0.295 N 
ATOM      9  H   GLY A   5      22.562  20.368  15.784  0.00  0.00    +0.150 HD
BRANCH   8  10
ATOM     10  CA  GLY A   5      20.977  21.114  17.040  0.00  0.00    +0.176 C 
BRANCH  10  11
ATOM     11  C   GLY A   5      20.809  19.658  17.399  0.00  0.00    +0.243 C 
ATOM     12  N   ILE A   6      19.598  19.263  17.768  0.00  0.00    -0.297 N 
ATOM     13  H   ILE A   6      18.824  19.956  17.819  0.00  0.00    +0.150 HD
ATOM     14  O   GLY A   5      21.777  18.898  17.369  0.00  0.00    -0.273 OA
BRANCH  12  15
ATOM     15  CA  ILE A   6      19.341  17.871  18.102  0.00  0.00    +0.149 C 
BRANCH  15  16
ATOM     16  C   ILE A   6      19.523  17.051  16.824  0.00  0.00    +0.241 C 
ATOM     17  N   GLY A   7      20.401  16.056  16.890  0.00  0.00    -0.295 N 
ATOM     18  H   GLY A   7      20.905  15.872  17.781  0.00  0.00    +0.150 HD
ATOM     19  O   ILE A   6      18.923  17.350  15.787  0.00  0.00    -0.273 OA
BRANCH  17  20
ATOM     20  CA  GLY A   7      20.663  15.223  15.731  0.00  0.00    +0.176 C 
BRANCH  20  21
ATOM     21  C   GLY A   7      22.005  15.529  15.092  0.00  0.00    +0.243 C 
ATOM     22  N   GLY A   8      22.610  16.659  15.455  0.00  0.00    -0.296 N 
ATOM     23  H   GLY A   8      22.158  17.288  16.148  0.00  0.00    +0.150 HD
ATOM     24  O   GLY A   7      22.485  14.750  14.273  0.00  0.00    -0.273 OA
BRANCH  22  25
ATOM     25  CA  GLY A   8      23.898  17.016  14.887  0.00  0.00    +0.163 C 
BRANCH  25  26
ATOM     26  C   GLY A   8      23.908  18.319  14.109  0.00  0.00    +0.229 C 
ATOM     27  O   GLY A   8      23.035  19.172  14.286  0.00  0.00    -0.286 OA
ENDBRANCH  25  26
ENDBRANCH  22  25
ENDBRANCH  20  21
ENDBRANCH  17  20
ENDBRANCH  15  16
BRANCH  15  28
ATOM     28  CB  ILE A   6      17.924  17.700  18.687  0.00  0.00    +0.027 C 
ATOM     29  CG2 ILE A   6      17.445  16.260  18.552  0.00  0.00    +0.002 C 
BRANCH  28  30
ATOM     30  CG1 ILE A   6      17.920  18.143  20.150  0.00  0.00    +0.002 C 
ATOM     31  CD1 ILE A   6      16.573  18.097  20.785  0.00  0.00    +0.000 C 
ENDBRANCH  28  30
ENDBRANCH  15  28
ENDBRANCH  12  15
ENDBRANCH  10  11
ENDBRANCH   8  10
ENDBRANCH   5   6
ENDBRANCH   2   5
BRANCH   1  32
ATOM     32  CA  ILE A   3      24.819  24.917  12.627  0.00  0.00    +0.149 C 
BRANCH  32  35
ATOM     33  C   MET A   2      26.899  25.157  11.399  0.00  0.00    +0.241 C 
ATOM     34  O   MET A   2      27.392  25.858  12.288  0.00  0.00    -0.273 OA
ATOM     35  N   ILE A   3      25.656  24.687  11.454  0.00  0.00    -0.297 N 
ATOM     36  H   ILE A   3      25.275  24.148  10.650  0.00  0.00    +0.150 HD
BRANCH  33  37
ATOM     37  CA  MET A   2      27.689  24.846  10.136  0.00  0.00    +0.149 C 
BRANCH  37  39
ATOM     38  C   LYS A   1      27.844  26.515   8.352  0.00  0.00    +0.238 C 
ATOM     39  N   MET A   2      28.163  26.111   9.578  0.00  0.00    -0.297 N 
ATOM     40  H   MET A   2      28.773  26.718  10.162  0.00  0.00    +0.150 HD
ATOM     41  O   LYS A   1      27.171  25.842   7.584  0.00  0.00    -0.274 OA
BRANCH  38  42
ATOM     42  CA  LYS A   1      28.382  27.876   7.916  0.00  0.00    +0.145 C 
BRANCH  42  43
ATOM     43  N   LYS A   1      28.460  27.948   6.460  0.00  0.00    -0.238 NA
ATOM     44  H   LYS A   1      27.803  27.380   5.888  0.00  0.00    +0.142 HD
ENDBRANCH  42  43
BRANCH  42  45
ATOM     45  CB  LYS A   1      27.445  28.991   8.404  0.00  0.00    +0.026 C 
BRANCH  45  46
ATOM     46  CG  LYS A   1      27.308  29.161   9.902  0.00  0.00    -0.000 C 
BRANCH  46  47
ATOM     47  CD  LYS A   1      26.265  30.236  10.192  0.00  0.00    -0.024 C 
BRANCH  47  48
ATOM     48  CE  LYS A   1      25.904  30.336  11.668  0.00  0.00    -0.086 C 
BRANCH  48  49
ATOM     49  NZ  LYS A   1      26.958  30.997  12.483  0.00  0.00    +0.380 N 
ATOM     50  HZ1 LYS A   1      26.653  31.035  13.477  0.00  0.00    -0.089 HD
ATOM     51  HZ2 LYS A   1      27.842  30.454  12.410  0.00  0.00    -0.089 HD
ATOM     52  HZ3 LYS A   1      27.113  31.963  12.130  0.00  0.00    -0.089 HD
ENDBRANCH  48  49
ENDBRANCH  47  48
ENDBRANCH  46  47
ENDBRANCH  45  46
ENDBRANCH  42  45
ENDBRANCH  38  42
ENDBRANCH  37  39
BRANCH  37  53
ATOM     53  CB  MET A   2      28.862  23.926  10.487  0.00  0.00    +0.041 C 
BRANCH  53  54
ATOM     54  CG  MET A   2      29.485  23.197   9.298  0.00  0.00    +0.060 C 
BRANCH  54  55
ATOM     55  SD  MET A   2      28.539  21.760   8.760  0.00  0.00    -0.139 S 
ATOM     56  CE  MET A   2      29.233  20.486   9.835  0.00  0.00    +0.069 C 
ENDBRANCH  54  55
ENDBRANCH  53  54
ENDBRANCH  37  53
ENDBRANCH  33  37
ENDBRANCH  32  35
BRANCH  32  57
ATOM     57  CB  ILE A   3      23.586  25.795  12.311  0.00  0.00    +0.027 C 
ATOM     58  CG2 ILE A   3      24.023  27.217  11.978  0.00  0.00    +0.002 C 
BRANCH  57  59
ATOM     59  CG1 ILE A   3      22.761  25.182  11.175  0.00  0.00    +0.002 C 
ATOM     60  CD1 ILE A   3      21.415  25.864  10.971  0.00  0.00    +0.000 C 
ENDBRANCH  57  59
ENDBRANCH  32  57
ENDBRANCH   1  32
TORSDOF 28
REMARK  Name = ../refined-set-2016/2i4u/2i4u_pocket.pdb
REMARK  225 active torsions:
REMARK  status: ('A' for Active; 'I' for Inactive)
REMARK    1  A    between atoms: _1  and  _3
REMARK    2  A    between atoms: _3  and  _4
REMARK    3  A    between atoms: _3  and  _6
REMARK    4  A    between atoms: _6  and  _7
REMARK    5  A    between atoms: _7  and  _8
REMARK    6  A    between atoms: _8  and  _9
REMARK    7  A    between atoms: _18  and  _20
REMARK    8  A    between atoms: _20  and  _21
REMARK    9  A    between atoms: _20  and  _23
REMARK   10  A    between atoms: _23  and  _24
REMARK   11  A    between atoms: _27  and  _29
REMARK   12  A    between atoms: _29  and  _30
REMARK   13  A    between atoms: _29  and  _32
REMARK   14  A    between atoms: _32  and  _33
REMARK   15  A    between atoms: _36  and  _38
REMARK   16  A    between atoms: _38  and  _39
REMARK   17  A    between atoms: _38  and  _41
REMARK   18  A    between atoms: _41  and  _42
REMARK   19  A    between atoms: _45  and  _47
REMARK   20  A    between atoms: _47  and  _48
REMARK   21  A    between atoms: _47  and  _50
REMARK   22  A    between atoms: _50  and  _51
REMARK   23  A    between atoms: _54  and  _56
REMARK   24  A    between atoms: _56  and  _57
REMARK   25  A    between atoms: _59  and  _61
REMARK   26  A    between atoms: _61  and  _62
REMARK   27  A    between atoms: _65  and  _67
REMARK   28  A    between atoms: _67  and  _68
REMARK   29  A    between atoms: _67  and  _70
REMARK   30  A    between atoms: _70  and  _71
REMARK   31  A    between atoms: _74  and  _76
REMARK   32  A    between atoms: _76  and  _77
REMARK   33  A    between atoms: _76  and  _79
REMARK   34  A    between atoms: _79  and  _80
REMARK   35  A    between atoms: _83  and  _85
REMARK   36  A    between atoms: _85  and  _86
REMARK   37  A    between atoms: _85  and  _88
REMARK   38  A    between atoms: _88  and  _89
REMARK   39  A    between atoms: _92  and  _94
REMARK   40  A    between atoms: _94  and  _95
REMARK   41  A    between atoms: _94  and  _97
REMARK   42  A    between atoms: _100  and  _102
REMARK   43  A    between atoms: _102  and  _103
REMARK   44  A    between atoms: _102  and  _105
REMARK   45  A    between atoms: _105  and  _106
REMARK   46  A    between atoms: _106  and  _107
REMARK   47  A    between atoms: _107  and  _108
REMARK   48  A    between atoms: _108  and  _109
REMARK   49  A    between atoms: _113  and  _115
REMARK   50  A    between atoms: _115  and  _116
REMARK   51  A    between atoms: _115  and  _118
REMARK   52  A    between atoms: _118  and  _119
REMARK   53  A    between atoms: _119  and  _120
REMARK   54  A    between atoms: _122  and  _124
REMARK   55  A    between atoms: _124  and  _125
REMARK   56  A    between atoms: _124  and  _127
REMARK   57  A    between atoms: _127  and  _128
REMARK   58  A    between atoms: _131  and  _133
REMARK   59  A    between atoms: _133  and  _134
REMARK   60  A    between atoms: _136  and  _138
REMARK   61  A    between atoms: _138  and  _139
REMARK   62  A    between atoms: _141  and  _143
REMARK   63  A    between atoms: _143  and  _144
REMARK   64  A    between atoms: _143  and  _146
REMARK   65  A    between atoms: _146  and  _147
REMARK   66  A    between atoms: _150  and  _152
REMARK   67  A    between atoms: _152  and  _153
REMARK   68  A    between atoms: _155  and  _157
REMARK   69  A    between atoms: _157  and  _158
REMARK   70  A    between atoms: _160  and  _162
REMARK   71  A    between atoms: _162  and  _163
REMARK   72  A    between atoms: _162  and  _165
REMARK   73  A    between atoms: _165  and  _166
REMARK   74  A    between atoms: _169  and  _171
REMARK   75  A    between atoms: _171  and  _172
REMARK   76  A    between atoms: _171  and  _174
REMARK   77  A    between atoms: _177  and  _179
REMARK   78  A    between atoms: _179  and  _180
REMARK   79  A    between atoms: _179  and  _182
REMARK   80  A    between atoms: _182  and  _183
REMARK   81  A    between atoms: _186  and  _188
REMARK   82  A    between atoms: _188  and  _189
REMARK   83  A    between atoms: _188  and  _191
REMARK   84  A    between atoms: _191  and  _192
REMARK   85  A    between atoms: _196  and  _197
REMARK   86  A    between atoms: _202  and  _204
REMARK   87  A    between atoms: _204  and  _205
REMARK   88  A    between atoms: _204  and  _207
REMARK   89  A    between atoms: _210  and  _212
REMARK   90  A    between atoms: _212  and  _213
REMARK   91  A    between atoms: _212  and  _215
REMARK   92  A    between atoms: _215  and  _216
REMARK   93  A    between atoms: _221  and  _223
REMARK   94  A    between atoms: _223  and  _224
REMARK   95  A    between atoms: _223  and  _226
REMARK   96  A    between atoms: _226  and  _227
REMARK   97  A    between atoms: _230  and  _232
REMARK   98  A    between atoms: _232  and  _233
REMARK   99  A    between atoms: _232  and  _235
REMARK  100  A    between atoms: _235  and  _236
REMARK  101  A    between atoms: _239  and  _241
REMARK  102  A    between atoms: _241  and  _242
REMARK  103  A    between atoms: _244  and  _246
REMARK  104  A    between atoms: _246  and  _247
REMARK  105  A    between atoms: _246  and  _249
REMARK  106  A    between atoms: _249  and  _250
REMARK  107  A    between atoms: _250  and  _251
REMARK  108  A    between atoms: _251  and  _252
REMARK  109  A    between atoms: _261  and  _263
REMARK  110  A    between atoms: _263  and  _264
REMARK  111  A    between atoms: _263  and  _266
REMARK  112  A    between atoms: _266  and  _267
REMARK  113  A    between atoms: _272  and  _274
REMARK  114  A    between atoms: _274  and  _275
REMARK  115  A    between atoms: _274  and  _277
REMARK  116  A    between atoms: _277  and  _278
REMARK  117  A    between atoms: _278  and  _279
REMARK  118  A    between atoms: _279  and  _280
REMARK  119  A    between atoms: _289  and  _291
REMARK  120  A    between atoms: _291  and  _292
REMARK  121  A    between atoms: _291  and  _294
REMARK  122  A    between atoms: _294  and  _295
REMARK  123  A    between atoms: _298  and  _300
REMARK  124  A    between atoms: _300  and  _301
REMARK  125  A    between atoms: _300  and  _303
REMARK  126  A    between atoms: _303  and  _304
REMARK  127  A    between atoms: _307  and  _309
REMARK  128  A    between atoms: _309  and  _310
REMARK  129  A    between atoms: _309  and  _312
REMARK  130  A    between atoms: _312  and  _313
REMARK  131  A    between atoms: _316  and  _318
REMARK  132  A    between atoms: _318  and  _319
REMARK  133  A    between atoms: _318  and  _321
REMARK  134  A    between atoms: _321  and  _322
REMARK  135  A    between atoms: _325  and  _327
REMARK  136  A    between atoms: _327  and  _328
REMARK  137  A    between atoms: _330  and  _332
REMARK  138  A    between atoms: _332  and  _333
REMARK  139  A    between atoms: _336  and  _338
REMARK  140  A    between atoms: _338  and  _339
REMARK  141  A    between atoms: _338  and  _341
REMARK  142  A    between atoms: _341  and  _342
REMARK  143  A    between atoms: _345  and  _347
REMARK  144  A    between atoms: _347  and  _348
REMARK  145  A    between atoms: _347  and  _350
REMARK  146  A    between atoms: _350  and  _351
REMARK  147  A    between atoms: _354  and  _356
REMARK  148  A    between atoms: _356  and  _357
REMARK  149  A    between atoms: _356  and  _359
REMARK  150  A    between atoms: _359  and  _360
REMARK  151  A    between atoms: _363  and  _365
REMARK  152  A    between atoms: _365  and  _366
REMARK  153  A    between atoms: _365  and  _368
REMARK  154  A    between atoms: _371  and  _373
REMARK  155  A    between atoms: _373  and  _374
REMARK  156  A    between atoms: _373  and  _376
REMARK  157  A    between atoms: _376  and  _377
REMARK  158  A    between atoms: _377  and  _378
REMARK  159  A    between atoms: _378  and  _379
REMARK  160  A    between atoms: _379  and  _380
REMARK  161  A    between atoms: _384  and  _386
REMARK  162  A    between atoms: _386  and  _387
REMARK  163  A    between atoms: _386  and  _389
REMARK  164  A    between atoms: _389  and  _390
REMARK  165  A    between atoms: _390  and  _391
REMARK  166  A    between atoms: _393  and  _395
REMARK  167  A    between atoms: _395  and  _396
REMARK  168  A    between atoms: _395  and  _398
REMARK  169  A    between atoms: _398  and  _399
REMARK  170  A    between atoms: _402  and  _404
REMARK  171  A    between atoms: _404  and  _405
REMARK  172  A    between atoms: _407  and  _409
REMARK  173  A    between atoms: _409  and  _410
REMARK  174  A    between atoms: _412  and  _414
REMARK  175  A    between atoms: _414  and  _415
REMARK  176  A    between atoms: _414  and  _417
REMARK  177  A    between atoms: _417  and  _418
REMARK  178  A    between atoms: _421  and  _423
REMARK  179  A    between atoms: _423  and  _424
REMARK  180  A    between atoms: _426  and  _428
REMARK  181  A    between atoms: _428  and  _429
REMARK  182  A    between atoms: _431  and  _433
REMARK  183  A    between atoms: _433  and  _434
REMARK  184  A    between atoms: _433  and  _436
REMARK  185  A    between atoms: _436  and  _437
REMARK  186  A    between atoms: _443  and  _445
REMARK  187  A    between atoms: _445  and  _446
REMARK  188  A    between atoms: _445  and  _448
REMARK  189  A    between atoms: _448  and  _449
REMARK  190  A    between atoms: _452  and  _454
REMARK  191  A    between atoms: _454  and  _455
REMARK  192  A    between atoms: _454  and  _457
REMARK  193  A    between atoms: _457  and  _458
REMARK  194  A    between atoms: _461  and  _463
REMARK  195  A    between atoms: _463  and  _464
REMARK  196  A    between atoms: _463  and  _466
REMARK  197  A    between atoms: _466  and  _467
REMARK  198  A    between atoms: _471  and  _472
REMARK  199  A    between atoms: _477  and  _479
REMARK  200  A    between atoms: _479  and  _480
REMARK  201  A    between atoms: _479  and  _482
REMARK  202  A    between atoms: _485  and  _487
REMARK  203  A    between atoms: _487  and  _488
REMARK  204  A    between atoms: _487  and  _490
REMARK  205  A    between atoms: _490  and  _491
REMARK  206  A    between atoms: _496  and  _498
REMARK  207  A    between atoms: _498  and  _499
REMARK  208  A    between atoms: _498  and  _501
REMARK  209  A    between atoms: _501  and  _502
REMARK  210  A    between atoms: _505  and  _507
REMARK  211  A    between atoms: _507  and  _508
REMARK  212  A    between atoms: _507  and  _510
REMARK  213  A    between atoms: _510  and  _511
REMARK  214  A    between atoms: _514  and  _516
REMARK  215  A    between atoms: _516  and  _517
REMARK  216  A    between atoms: _519  and  _521
REMARK  217  A    between atoms: _521  and  _522
REMARK  218  A    between atoms: _521  and  _524
REMARK  219  A    between atoms: _524  and  _525
REMARK  220  A    between atoms: _525  and  _526
REMARK  221  A    between atoms: _526  and  _527
REMARK  222  A    between atoms: _536  and  _538
REMARK  223  A    between atoms: _538  and  _539
REMARK  224  A    between atoms: _538  and  _541
REMARK  225  A    between atoms: _541  and  _542
REMARK                            x       y       z     vdW  Elec       q    Type
REMARK                         _______ _______ _______ _____ _____    ______ ____
ROOT
ATOM      1  CA  ILE A   1      23.910  20.706   8.927  0.00  0.00    +0.133 C 
ENDROOT
BRANCH   1   2
ATOM      2  N   ILE A   1      24.246  20.648  10.346  0.00  0.00    -0.239 NA
ATOM      3  H   ILE A   1      24.190  21.519  10.911  0.00  0.00    +0.142 HD
ENDBRANCH   1   2
BRANCH   1   4
ATOM      4  CB  ILE A   1      22.388  20.852   8.627  0.00  0.00    +0.023 C 
ATOM      5  CG2 ILE A   1      21.627  19.632   9.115  0.00  0.00    +0.002 C 
BRANCH   4   6
ATOM      6  CG1 ILE A   1      21.830  22.150   9.211  0.00  0.00    +0.002 C 
ATOM      7  CD1 ILE A   1      20.474  22.535   8.642  0.00  0.00    +0.000 C 
ENDBRANCH   4   6
ENDBRANCH   1   4
BRANCH   1   8
ATOM      8  C   ILE A   1      24.668  21.906   8.355  0.00  0.00    +0.224 C 
ATOM      9  O   ILE A   1      24.925  22.887   9.063  0.00  0.00    -0.287 OA
ENDBRANCH   1   8
TORSDOF 4
REMARK  Name = ../refined-set-2016/2i4u/2i4u_pocket.pdb
REMARK  225 active torsions:
REMARK  status: ('A' for Active; 'I' for Inactive)
REMARK    1  A    between atoms: _1  and  _3
REMARK    2  A    between atoms: _3  and  _4
REMARK    3  A    between atoms: _3  and  _6
REMARK    4  A    between atoms: _6  and  _7
REMARK    5  A    between atoms: _7  and  _8
REMARK    6  A    between atoms: _8  and  _9
REMARK    7  A    between atoms: _18  and  _20
REMARK    8  A    between atoms: _20  and  _21
REMARK    9  A    between atoms: _20  and  _23
REMARK   10  A    between atoms: _23  and  _24
REMARK   11  A    between atoms: _27  and  _29
REMARK   12  A    between atoms: _29  and  _30
REMARK   13  A    between atoms: _29  and  _32
REMARK   14  A    between atoms: _32  and  _33
REMARK   15  A    between atoms: _36  and  _38
REMARK   16  A    between atoms: _38  and  _39
REMARK   17  A    between atoms: _38  and  _41
REMARK   18  A    between atoms: _41  and  _42
REMARK   19  A    between atoms: _45  and  _47
REMARK   20  A    between atoms: _47  and  _48
REMARK   21  A    between atoms: _47  and  _50
REMARK   22  A    between atoms: _50  and  _51
REMARK   23  A    between atoms: _54  and  _56
REMARK   24  A    between atoms: _56  and  _57
REMARK   25  A    between atoms: _59  and  _61
REMARK   26  A    between atoms: _61  and  _62
REMARK   27  A    between atoms: _65  and  _67
REMARK   28  A    between atoms: _67  and  _68
REMARK   29  A    between atoms: _67  and  _70
REMARK   30  A    between atoms: _70  and  _71
REMARK   31  A    between atoms: _74  and  _76
REMARK   32  A    between atoms: _76  and  _77
REMARK   33  A    between atoms: _76  and  _79
REMARK   34  A    between atoms: _79  and  _80
REMARK   35  A    between atoms: _83  and  _85
REMARK   36  A    between atoms: _85  and  _86
REMARK   37  A    between atoms: _85  and  _88
REMARK   38  A    between atoms: _88  and  _89
REMARK   39  A    between atoms: _92  and  _94
REMARK   40  A    between atoms: _94  and  _95
REMARK   41  A    between atoms: _94  and  _97
REMARK   42  A    between atoms: _100  and  _102
REMARK   43  A    between atoms: _102  and  _103
REMARK   44  A    between atoms: _102  and  _105
REMARK   45  A    between atoms: _105  and  _106
REMARK   46  A    between atoms: _106  and  _107
REMARK   47  A    between atoms: _107  and  _108
REMARK   48  A    between atoms: _108  and  _109
REMARK   49  A    between atoms: _113  and  _115
REMARK   50  A    between atoms: _115  and  _116
REMARK   51  A    between atoms: _115  and  _118
REMARK   52  A    between atoms: _118  and  _119
REMARK   53  A    between atoms: _119  and  _120
REMARK   54  A    between atoms: _122  and  _124
REMARK   55  A    between atoms: _124  and  _125
REMARK   56  A    between atoms: _124  and  _127
REMARK   57  A    between atoms: _127  and  _128
REMARK   58  A    between atoms: _131  and  _133
REMARK   59  A    between atoms: _133  and  _134
REMARK   60  A    between atoms: _136  and  _138
REMARK   61  A    between atoms: _138  and  _139
REMARK   62  A    between atoms: _141  and  _143
REMARK   63  A    between atoms: _143  and  _144
REMARK   64  A    between atoms: _143  and  _146
REMARK   65  A    between atoms: _146  and  _147
REMARK   66  A    between atoms: _150  and  _152
REMARK   67  A    between atoms: _152  and  _153
REMARK   68  A    between atoms: _155  and  _157
REMARK   69  A    between atoms: _157  and  _158
REMARK   70  A    between atoms: _160  and  _162
REMARK   71  A    between atoms: _162  and  _163
REMARK   72  A    between atoms: _162  and  _165
REMARK   73  A    between atoms: _165  and  _166
REMARK   74  A    between atoms: _169  and  _171
REMARK   75  A    between atoms: _171  and  _172
REMARK   76  A    between atoms: _171  and  _174
REMARK   77  A    between atoms: _177  and  _179
REMARK   78  A    between atoms: _179  and  _180
REMARK   79  A    between atoms: _179  and  _182
REMARK   80  A    between atoms: _182  and  _183
REMARK   81  A    between atoms: _186  and  _188
REMARK   82  A    between atoms: _188  and  _189
REMARK   83  A    between atoms: _188  and  _191
REMARK   84  A    between atoms: _191  and  _192
REMARK   85  A    between atoms: _196  and  _197
REMARK   86  A    between atoms: _202  and  _204
REMARK   87  A    between atoms: _204  and  _205
REMARK   88  A    between atoms: _204  and  _207
REMARK   89  A    between atoms: _210  and  _212
REMARK   90  A    between atoms: _212  and  _213
REMARK   91  A    between atoms: _212  and  _215
REMARK   92  A    between atoms: _215  and  _216
REMARK   93  A    between atoms: _221  and  _223
REMARK   94  A    between atoms: _223  and  _224
REMARK   95  A    between atoms: _223  and  _226
REMARK   96  A    between atoms: _226  and  _227
REMARK   97  A    between atoms: _230  and  _232
REMARK   98  A    between atoms: _232  and  _233
REMARK   99  A    between atoms: _232  and  _235
REMARK  100  A    between atoms: _235  and  _236
REMARK  101  A    between atoms: _239  and  _241
REMARK  102  A    between atoms: _241  and  _242
REMARK  103  A    between atoms: _244  and  _246
REMARK  104  A    between atoms: _246  and  _247
REMARK  105  A    between atoms: _246  and  _249
REMARK  106  A    between atoms: _249  and  _250
REMARK  107  A    between atoms: _250  and  _251
REMARK  108  A    between atoms: _251  and  _252
REMARK  109  A    between atoms: _261  and  _263
REMARK  110  A    between atoms: _263  and  _264
REMARK  111  A    between atoms: _263  and  _266
REMARK  112  A    between atoms: _266  and  _267
REMARK  113  A    between atoms: _272  and  _274
REMARK  114  A    between atoms: _274  and  _275
REMARK  115  A    between atoms: _274  and  _277
REMARK  116  A    between atoms: _277  and  _278
REMARK  117  A    between atoms: _278  and  _279
REMARK  118  A    between atoms: _279  and  _280
REMARK  119  A    between atoms: _289  and  _291
REMARK  120  A    between atoms: _291  and  _292
REMARK  121  A    between atoms: _291  and  _294
REMARK  122  A    between atoms: _294  and  _295
REMARK  123  A    between atoms: _298  and  _300
REMARK  124  A    between atoms: _300  and  _301
REMARK  125  A    between atoms: _300  and  _303
REMARK  126  A    between atoms: _303  and  _304
REMARK  127  A    between atoms: _307  and  _309
REMARK  128  A    between atoms: _309  and  _310
REMARK  129  A    between atoms: _309  and  _312
REMARK  130  A    between atoms: _312  and  _313
REMARK  131  A    between atoms: _316  and  _318
REMARK  132  A    between atoms: _318  and  _319
REMARK  133  A    between atoms: _318  and  _321
REMARK  134  A    between atoms: _321  and  _322
REMARK  135  A    between atoms: _325  and  _327
REMARK  136  A    between atoms: _327  and  _328
REMARK  137  A    between atoms: _330  and  _332
REMARK  138  A    between atoms: _332  and  _333
REMARK  139  A    between atoms: _336  and  _338
REMARK  140  A    between atoms: _338  and  _339
REMARK  141  A    between atoms: _338  and  _341
REMARK  142  A    between atoms: _341  and  _342
REMARK  143  A    between atoms: _345  and  _347
REMARK  144  A    between atoms: _347  and  _348
REMARK  145  A    between atoms: _347  and  _350
REMARK  146  A    between atoms: _350  and  _351
REMARK  147  A    between atoms: _354  and  _356
REMARK  148  A    between atoms: _356  and  _357
REMARK  149  A    between atoms: _356  and  _359
REMARK  150  A    between atoms: _359  and  _360
REMARK  151  A    between atoms: _363  and  _365
REMARK  152  A    between atoms: _365  and  _366
REMARK  153  A    between atoms: _365  and  _368
REMARK  154  A    between atoms: _371  and  _373
REMARK  155  A    between atoms: _373  and  _374
REMARK  156  A    between atoms: _373  and  _376
REMARK  157  A    between atoms: _376  and  _377
REMARK  158  A    between atoms: _377  and  _378
REMARK  159  A    between atoms: _378  and  _379
REMARK  160  A    between atoms: _379  and  _380
REMARK  161  A    between atoms: _384  and  _386
REMARK  162  A    between atoms: _386  and  _387
REMARK  163  A    between atoms: _386  and  _389
REMARK  164  A    between atoms: _389  and  _390
REMARK  165  A    between atoms: _390  and  _391
REMARK  166  A    between atoms: _393  and  _395
REMARK  167  A    between atoms: _395  and  _396
REMARK  168  A    between atoms: _395  and  _398
REMARK  169  A    between atoms: _398  and  _399
REMARK  170  A    between atoms: _402  and  _404
REMARK  171  A    between atoms: _404  and  _405
REMARK  172  A    between atoms: _407  and  _409
REMARK  173  A    between atoms: _409  and  _410
REMARK  174  A    between atoms: _412  and  _414
REMARK  175  A    between atoms: _414  and  _415
REMARK  176  A    between atoms: _414  and  _417
REMARK  177  A    between atoms: _417  and  _418
REMARK  178  A    between atoms: _421  and  _423
REMARK  179  A    between atoms: _423  and  _424
REMARK  180  A    between atoms: _426  and  _428
REMARK  181  A    between atoms: _428  and  _429
REMARK  182  A    between atoms: _431  and  _433
REMARK  183  A    between atoms: _433  and  _434
REMARK  184  A    between atoms: _433  and  _436
REMARK  185  A    between atoms: _436  and  _437
REMARK  186  A    between atoms: _443  and  _445
REMARK  187  A    between atoms: _445  and  _446
REMARK  188  A    between atoms: _445  and  _448
REMARK  189  A    between atoms: _448  and  _449
REMARK  190  A    between atoms: _452  and  _454
REMARK  191  A    between atoms: _454  and  _455
REMARK  192  A    between atoms: _454  and  _457
REMARK  193  A    between atoms: _457  and  _458
REMARK  194  A    between atoms: _461  and  _463
REMARK  195  A    between atoms: _463  and  _464
REMARK  196  A    between atoms: _463  and  _466
REMARK  197  A    between atoms: _466  and  _467
REMARK  198  A    between atoms: _471  and  _472
REMARK  199  A    between atoms: _477  and  _479
REMARK  200  A    between atoms: _479  and  _480
REMARK  201  A    between atoms: _479  and  _482
REMARK  202  A    between atoms: _485  and  _487
REMARK  203  A    between atoms: _487  and  _488
REMARK  204  A    between atoms: _487  and  _490
REMARK  205  A    between atoms: _490  and  _491
REMARK  206  A    between atoms: _496  and  _498
REMARK  207  A    between atoms: _498  and  _499
REMARK  208  A    between atoms: _498  and  _501
REMARK  209  A    between atoms: _501  and  _502
REMARK  210  A    between atoms: _505  and  _507
REMARK  211  A    between atoms: _507  and  _508
REMARK  212  A    between atoms: _507  and  _510
REMARK  213  A    between atoms: _510  and  _511
REMARK  214  A    between atoms: _514  and  _516
REMARK  215  A    between atoms: _516  and  _517
REMARK  216  A    between atoms: _519  and  _521
REMARK  217  A    between atoms: _521  and  _522
REMARK  218  A    between atoms: _521  and  _524
REMARK  219  A    between atoms: _524  and  _525
REMARK  220  A    between atoms: _525  and  _526
REMARK  221  A    between atoms: _526  and  _527
REMARK  222  A    between atoms: _536  and  _538
REMARK  223  A    between atoms: _538  and  _539
REMARK  224  A    between atoms: _538  and  _541
REMARK  225  A    between atoms: _541  and  _542
REMARK                            x       y       z     vdW  Elec       q    Type
REMARK                         _______ _______ _______ _____ _____    ______ ____
ROOT
ATOM      1  CA  VAL A   1      24.077  26.104   5.362  0.00  0.00    +0.133 C 
ENDROOT
BRANCH   1   2
ATOM      2  CB  VAL A   1      23.121  26.687   6.456  0.00  0.00    +0.023 C 
ATOM      3  CG2 VAL A   1      23.919  27.385   7.545  0.00  0.00    +0.002 C 
ATOM      4  CG1 VAL A   1      22.260  25.587   7.068  0.00  0.00    +0.002 C 
ENDBRANCH   1   2
BRANCH   1   5
ATOM      5  N   VAL A   1      24.981  25.095   5.923  0.00  0.00    -0.239 NA
ATOM      6  H   VAL A   1      25.801  25.410   6.480  0.00  0.00    +0.142 HD
ENDBRANCH   1   5
BRANCH   1   7
ATOM      7  C   VAL A   1      24.829  27.281   4.731  0.00  0.00    +0.224 C 
ATOM      8  O   VAL A   1      26.032  27.457   4.946  0.00  0.00    -0.287 OA
ENDBRANCH   1   7
TORSDOF 3
REMARK  Name = ../refined-set-2016/2i4u/2i4u_pocket.pdb
REMARK  225 active torsions:
REMARK  status: ('A' for Active; 'I' for Inactive)
REMARK    1  A    between atoms: _1  and  _3
REMARK    2  A    between atoms: _3  and  _4
REMARK    3  A    between atoms: _3  and  _6
REMARK    4  A    between atoms: _6  and  _7
REMARK    5  A    between atoms: _7  and  _8
REMARK    6  A    between atoms: _8  and  _9
REMARK    7  A    between atoms: _18  and  _20
REMARK    8  A    between atoms: _20  and  _21
REMARK    9  A    between atoms: _20  and  _23
REMARK   10  A    between atoms: _23  and  _24
REMARK   11  A    between atoms: _27  and  _29
REMARK   12  A    between atoms: _29  and  _30
REMARK   13  A    between atoms: _29  and  _32
REMARK   14  A    between atoms: _32  and  _33
REMARK   15  A    between atoms: _36  and  _38
REMARK   16  A    between atoms: _38  and  _39
REMARK   17  A    between atoms: _38  and  _41
REMARK   18  A    between atoms: _41  and  _42
REMARK   19  A    between atoms: _45  and  _47
REMARK   20  A    between atoms: _47  and  _48
REMARK   21  A    between atoms: _47  and  _50
REMARK   22  A    between atoms: _50  and  _51
REMARK   23  A    between atoms: _54  and  _56
REMARK   24  A    between atoms: _56  and  _57
REMARK   25  A    between atoms: _59  and  _61
REMARK   26  A    between atoms: _61  and  _62
REMARK   27  A    between atoms: _65  and  _67
REMARK   28  A    between atoms: _67  and  _68
REMARK   29  A    between atoms: _67  and  _70
REMARK   30  A    between atoms: _70  and  _71
REMARK   31  A    between atoms: _74  and  _76
REMARK   32  A    between atoms: _76  and  _77
REMARK   33  A    between atoms: _76  and  _79
REMARK   34  A    between atoms: _79  and  _80
REMARK   35  A    between atoms: _83  and  _85
REMARK   36  A    between atoms: _85  and  _86
REMARK   37  A    between atoms: _85  and  _88
REMARK   38  A    between atoms: _88  and  _89
REMARK   39  A    between atoms: _92  and  _94
REMARK   40  A    between atoms: _94  and  _95
REMARK   41  A    between atoms: _94  and  _97
REMARK   42  A    between atoms: _100  and  _102
REMARK   43  A    between atoms: _102  and  _103
REMARK   44  A    between atoms: _102  and  _105
REMARK   45  A    between atoms: _105  and  _106
REMARK   46  A    between atoms: _106  and  _107
REMARK   47  A    between atoms: _107  and  _108
REMARK   48  A    between atoms: _108  and  _109
REMARK   49  A    between atoms: _113  and  _115
REMARK   50  A    between atoms: _115  and  _116
REMARK   51  A    between atoms: _115  and  _118
REMARK   52  A    between atoms: _118  and  _119
REMARK   53  A    between atoms: _119  and  _120
REMARK   54  A    between atoms: _122  and  _124
REMARK   55  A    between atoms: _124  and  _125
REMARK   56  A    between atoms: _124  and  _127
REMARK   57  A    between atoms: _127  and  _128
REMARK   58  A    between atoms: _131  and  _133
REMARK   59  A    between atoms: _133  and  _134
REMARK   60  A    between atoms: _136  and  _138
REMARK   61  A    between atoms: _138  and  _139
REMARK   62  A    between atoms: _141  and  _143
REMARK   63  A    between atoms: _143  and  _144
REMARK   64  A    between atoms: _143  and  _146
REMARK   65  A    between atoms: _146  and  _147
REMARK   66  A    between atoms: _150  and  _152
REMARK   67  A    between atoms: _152  and  _153
REMARK   68  A    between atoms: _155  and  _157
REMARK   69  A    between atoms: _157  and  _158
REMARK   70  A    between atoms: _160  and  _162
REMARK   71  A    between atoms: _162  and  _163
REMARK   72  A    between atoms: _162  and  _165
REMARK   73  A    between atoms: _165  and  _166
REMARK   74  A    between atoms: _169  and  _171
REMARK   75  A    between atoms: _171  and  _172
REMARK   76  A    between atoms: _171  and  _174
REMARK   77  A    between atoms: _177  and  _179
REMARK   78  A    between atoms: _179  and  _180
REMARK   79  A    between atoms: _179  and  _182
REMARK   80  A    between atoms: _182  and  _183
REMARK   81  A    between atoms: _186  and  _188
REMARK   82  A    between atoms: _188  and  _189
REMARK   83  A    between atoms: _188  and  _191
REMARK   84  A    between atoms: _191  and  _192
REMARK   85  A    between atoms: _196  and  _197
REMARK   86  A    between atoms: _202  and  _204
REMARK   87  A    between atoms: _204  and  _205
REMARK   88  A    between atoms: _204  and  _207
REMARK   89  A    between atoms: _210  and  _212
REMARK   90  A    between atoms: _212  and  _213
REMARK   91  A    between atoms: _212  and  _215
REMARK   92  A    between atoms: _215  and  _216
REMARK   93  A    between atoms: _221  and  _223
REMARK   94  A    between atoms: _223  and  _224
REMARK   95  A    between atoms: _223  and  _226
REMARK   96  A    between atoms: _226  and  _227
REMARK   97  A    between atoms: _230  and  _232
REMARK   98  A    between atoms: _232  and  _233
REMARK   99  A    between atoms: _232  and  _235
REMARK  100  A    between atoms: _235  and  _236
REMARK  101  A    between atoms: _239  and  _241
REMARK  102  A    between atoms: _241  and  _242
REMARK  103  A    between atoms: _244  and  _246
REMARK  104  A    between atoms: _246  and  _247
REMARK  105  A    between atoms: _246  and  _249
REMARK  106  A    between atoms: _249  and  _250
REMARK  107  A    between atoms: _250  and  _251
REMARK  108  A    between atoms: _251  and  _252
REMARK  109  A    between atoms: _261  and  _263
REMARK  110  A    between atoms: _263  and  _264
REMARK  111  A    between atoms: _263  and  _266
REMARK  112  A    between atoms: _266  and  _267
REMARK  113  A    between atoms: _272  and  _274
REMARK  114  A    between atoms: _274  and  _275
REMARK  115  A    between atoms: _274  and  _277
REMARK  116  A    between atoms: _277  and  _278
REMARK  117  A    between atoms: _278  and  _279
REMARK  118  A    between atoms: _279  and  _280
REMARK  119  A    between atoms: _289  and  _291
REMARK  120  A    between atoms: _291  and  _292
REMARK  121  A    between atoms: _291  and  _294
REMARK  122  A    between atoms: _294  and  _295
REMARK  123  A    between atoms: _298  and  _300
REMARK  124  A    between atoms: _300  and  _301
REMARK  125  A    between atoms: _300  and  _303
REMARK  126  A    between atoms: _303  and  _304
REMARK  127  A    between atoms: _307  and  _309
REMARK  128  A    between atoms: _309  and  _310
REMARK  129  A    between atoms: _309  and  _312
REMARK  130  A    between atoms: _312  and  _313
REMARK  131  A    between atoms: _316  and  _318
REMARK  132  A    between atoms: _318  and  _319
REMARK  133  A    between atoms: _318  and  _321
REMARK  134  A    between atoms: _321  and  _322
REMARK  135  A    between atoms: _325  and  _327
REMARK  136  A    between atoms: _327  and  _328
REMARK  137  A    between atoms: _330  and  _332
REMARK  138  A    between atoms: _332  and  _333
REMARK  139  A    between atoms: _336  and  _338
REMARK  140  A    between atoms: _338  and  _339
REMARK  141  A    between atoms: _338  and  _341
REMARK  142  A    between atoms: _341  and  _342
REMARK  143  A    between atoms: _345  and  _347
REMARK  144  A    between atoms: _347  and  _348
REMARK  145  A    between atoms: _347  and  _350
REMARK  146  A    between atoms: _350  and  _351
REMARK  147  A    between atoms: _354  and  _356
REMARK  148  A    between atoms: _356  and  _357
REMARK  149  A    between atoms: _356  and  _359
REMARK  150  A    between atoms: _359  and  _360
REMARK  151  A    between atoms: _363  and  _365
REMARK  152  A    between atoms: _365  and  _366
REMARK  153  A    between atoms: _365  and  _368
REMARK  154  A    between atoms: _371  and  _373
REMARK  155  A    between atoms: _373  and  _374
REMARK  156  A    between atoms: _373  and  _376
REMARK  157  A    between atoms: _376  and  _377
REMARK  158  A    between atoms: _377  and  _378
REMARK  159  A    between atoms: _378  and  _379
REMARK  160  A    between atoms: _379  and  _380
REMARK  161  A    between atoms: _384  and  _386
REMARK  162  A    between atoms: _386  and  _387
REMARK  163  A    between atoms: _386  and  _389
REMARK  164  A    between atoms: _389  and  _390
REMARK  165  A    between atoms: _390  and  _391
REMARK  166  A    between atoms: _393  and  _395
REMARK  167  A    between atoms: _395  and  _396
REMARK  168  A    between atoms: _395  and  _398
REMARK  169  A    between atoms: _398  and  _399
REMARK  170  A    between atoms: _402  and  _404
REMARK  171  A    between atoms: _404  and  _405
REMARK  172  A    between atoms: _407  and  _409
REMARK  173  A    between atoms: _409  and  _410
REMARK  174  A    between atoms: _412  and  _414
REMARK  175  A    between atoms: _414  and  _415
REMARK  176  A    between atoms: _414  and  _417
REMARK  177  A    between atoms: _417  and  _418
REMARK  178  A    between atoms: _421  and  _423
REMARK  179  A    between atoms: _423  and  _424
REMARK  180  A    between atoms: _426  and  _428
REMARK  181  A    between atoms: _428  and  _429
REMARK  182  A    between atoms: _431  and  _433
REMARK  183  A    between atoms: _433  and  _434
REMARK  184  A    between atoms: _433  and  _436
REMARK  185  A    between atoms: _436  and  _437
REMARK  186  A    between atoms: _443  and  _445
REMARK  187  A    between atoms: _445  and  _446
REMARK  188  A    between atoms: _445  and  _448
REMARK  189  A    between atoms: _448  and  _449
REMARK  190  A    between atoms: _452  and  _454
REMARK  191  A    between atoms: _454  and  _455
REMARK  192  A    between atoms: _454  and  _457
REMARK  193  A    between atoms: _457  and  _458
REMARK  194  A    between atoms: _461  and  _463
REMARK  195  A    between atoms: _463  and  _464
REMARK  196  A    between atoms: _463  and  _466
REMARK  197  A    between atoms: _466  and  _467
REMARK  198  A    between atoms: _471  and  _472
REMARK  199  A    between atoms: _477  and  _479
REMARK  200  A    between atoms: _479  and  _480
REMARK  201  A    between atoms: _479  and  _482
REMARK  202  A    between atoms: _485  and  _487
REMARK  203  A    between atoms: _487  and  _488
REMARK  204  A    between atoms: _487  and  _490
REMARK  205  A    between atoms: _490  and  _491
REMARK  206  A    between atoms: _496  and  _498
REMARK  207  A    between atoms: _498  and  _499
REMARK  208  A    between atoms: _498  and  _501
REMARK  209  A    between atoms: _501  and  _502
REMARK  210  A    between atoms: _505  and  _507
REMARK  211  A    between atoms: _507  and  _508
REMARK  212  A    between atoms: _507  and  _510
REMARK  213  A    between atoms: _510  and  _511
REMARK  214  A    between atoms: _514  and  _516
REMARK  215  A    between atoms: _516  and  _517
REMARK  216  A    between atoms: _519  and  _521
REMARK  217  A    between atoms: _521  and  _522
REMARK  218  A    between atoms: _521  and  _524
REMARK  219  A    between atoms: _524  and  _525
REMARK  220  A    between atoms: _525  and  _526
REMARK  221  A    between atoms: _526  and  _527
REMARK  222  A    between atoms: _536  and  _538
REMARK  223  A    between atoms: _538  and  _539
REMARK  224  A    between atoms: _538  and  _541
REMARK  225  A    between atoms: _541  and  _542
REMARK                            x       y       z     vdW  Elec       q    Type
REMARK                         _______ _______ _______ _____ _____    ______ ____
ROOT
ATOM      1  CA  LEU A   1      20.583  30.584   6.775  0.00  0.00    +0.133 C 
ENDROOT
BRANCH   1   2
ATOM      2  N   LEU A   1      19.736  31.736   7.046  0.00  0.00    -0.239 NA
ATOM      3  H   LEU A   1      18.992  31.657   7.769  0.00  0.00    +0.142 HD
ENDBRANCH   1   2
BRANCH   1   4
ATOM      4  C   LEU A   1      19.764  29.624   5.909  0.00  0.00    +0.224 C 
ATOM      5  O   LEU A   1      18.670  29.223   6.297  0.00  0.00    -0.287 OA
ENDBRANCH   1   4
BRANCH   1   6
ATOM      6  CB  LEU A   1      20.986  29.900   8.084  0.00  0.00    +0.025 C 
BRANCH   6   7
ATOM      7  CG  LEU A   1      21.623  30.784   9.161  0.00  0.00    +0.002 C 
ATOM      8  CD2 LEU A   1      22.003  29.931  10.361  0.00  0.00    +0.000 C 
ATOM      9  CD1 LEU A   1      22.851  31.494   8.605  0.00  0.00    +0.000 C 
ENDBRANCH   6   7
ENDBRANCH   1   6
TORSDOF 4
REMARK  Name = ../refined-set-2016/2i4u/2i4u_pocket.pdb
REMARK  225 active torsions:
REMARK  status: ('A' for Active; 'I' for Inactive)
REMARK    1  A    between atoms: _1  and  _3
REMARK    2  A    between atoms: _3  and  _4
REMARK    3  A    between atoms: _3  and  _6
REMARK    4  A    between atoms: _6  and  _7
REMARK    5  A    between atoms: _7  and  _8
REMARK    6  A    between atoms: _8  and  _9
REMARK    7  A    between atoms: _18  and  _20
REMARK    8  A    between atoms: _20  and  _21
REMARK    9  A    between atoms: _20  and  _23
REMARK   10  A    between atoms: _23  and  _24
REMARK   11  A    between atoms: _27  and  _29
REMARK   12  A    between atoms: _29  and  _30
REMARK   13  A    between atoms: _29  and  _32
REMARK   14  A    between atoms: _32  and  _33
REMARK   15  A    between atoms: _36  and  _38
REMARK   16  A    between atoms: _38  and  _39
REMARK   17  A    between atoms: _38  and  _41
REMARK   18  A    between atoms: _41  and  _42
REMARK   19  A    between atoms: _45  and  _47
REMARK   20  A    between atoms: _47  and  _48
REMARK   21  A    between atoms: _47  and  _50
REMARK   22  A    between atoms: _50  and  _51
REMARK   23  A    between atoms: _54  and  _56
REMARK   24  A    between atoms: _56  and  _57
REMARK   25  A    between atoms: _59  and  _61
REMARK   26  A    between atoms: _61  and  _62
REMARK   27  A    between atoms: _65  and  _67
REMARK   28  A    between atoms: _67  and  _68
REMARK   29  A    between atoms: _67  and  _70
REMARK   30  A    between atoms: _70  and  _71
REMARK   31  A    between atoms: _74  and  _76
REMARK   32  A    between atoms: _76  and  _77
REMARK   33  A    between atoms: _76  and  _79
REMARK   34  A    between atoms: _79  and  _80
REMARK   35  A    between atoms: _83  and  _85
REMARK   36  A    between atoms: _85  and  _86
REMARK   37  A    between atoms: _85  and  _88
REMARK   38  A    between atoms: _88  and  _89
REMARK   39  A    between atoms: _92  and  _94
REMARK   40  A    between atoms: _94  and  _95
REMARK   41  A    between atoms: _94  and  _97
REMARK   42  A    between atoms: _100  and  _102
REMARK   43  A    between atoms: _102  and  _103
REMARK   44  A    between atoms: _102  and  _105
REMARK   45  A    between atoms: _105  and  _106
REMARK   46  A    between atoms: _106  and  _107
REMARK   47  A    between atoms: _107  and  _108
REMARK   48  A    between atoms: _108  and  _109
REMARK   49  A    between atoms: _113  and  _115
REMARK   50  A    between atoms: _115  and  _116
REMARK   51  A    between atoms: _115  and  _118
REMARK   52  A    between atoms: _118  and  _119
REMARK   53  A    between atoms: _119  and  _120
REMARK   54  A    between atoms: _122  and  _124
REMARK   55  A    between atoms: _124  and  _125
REMARK   56  A    between atoms: _124  and  _127
REMARK   57  A    between atoms: _127  and  _128
REMARK   58  A    between atoms: _131  and  _133
REMARK   59  A    between atoms: _133  and  _134
REMARK   60  A    between atoms: _136  and  _138
REMARK   61  A    between atoms: _138  and  _139
REMARK   62  A    between atoms: _141  and  _143
REMARK   63  A    between atoms: _143  and  _144
REMARK   64  A    between atoms: _143  and  _146
REMARK   65  A    between atoms: _146  and  _147
REMARK   66  A    between atoms: _150  and  _152
REMARK   67  A    between atoms: _152  and  _153
REMARK   68  A    between atoms: _155  and  _157
REMARK   69  A    between atoms: _157  and  _158
REMARK   70  A    between atoms: _160  and  _162
REMARK   71  A    between atoms: _162  and  _163
REMARK   72  A    between atoms: _162  and  _165
REMARK   73  A    between atoms: _165  and  _166
REMARK   74  A    between atoms: _169  and  _171
REMARK   75  A    between atoms: _171  and  _172
REMARK   76  A    between atoms: _171  and  _174
REMARK   77  A    between atoms: _177  and  _179
REMARK   78  A    between atoms: _179  and  _180
REMARK   79  A    between atoms: _179  and  _182
REMARK   80  A    between atoms: _182  and  _183
REMARK   81  A    between atoms: _186  and  _188
REMARK   82  A    between atoms: _188  and  _189
REMARK   83  A    between atoms: _188  and  _191
REMARK   84  A    between atoms: _191  and  _192
REMARK   85  A    between atoms: _196  and  _197
REMARK   86  A    between atoms: _202  and  _204
REMARK   87  A    between atoms: _204  and  _205
REMARK   88  A    between atoms: _204  and  _207
REMARK   89  A    between atoms: _210  and  _212
REMARK   90  A    between atoms: _212  and  _213
REMARK   91  A    between atoms: _212  and  _215
REMARK   92  A    between atoms: _215  and  _216
REMARK   93  A    between atoms: _221  and  _223
REMARK   94  A    between atoms: _223  and  _224
REMARK   95  A    between atoms: _223  and  _226
REMARK   96  A    between atoms: _226  and  _227
REMARK   97  A    between atoms: _230  and  _232
REMARK   98  A    between atoms: _232  and  _233
REMARK   99  A    between atoms: _232  and  _235
REMARK  100  A    between atoms: _235  and  _236
REMARK  101  A    between atoms: _239  and  _241
REMARK  102  A    between atoms: _241  and  _242
REMARK  103  A    between atoms: _244  and  _246
REMARK  104  A    between atoms: _246  and  _247
REMARK  105  A    between atoms: _246  and  _249
REMARK  106  A    between atoms: _249  and  _250
REMARK  107  A    between atoms: _250  and  _251
REMARK  108  A    between atoms: _251  and  _252
REMARK  109  A    between atoms: _261  and  _263
REMARK  110  A    between atoms: _263  and  _264
REMARK  111  A    between atoms: _263  and  _266
REMARK  112  A    between atoms: _266  and  _267
REMARK  113  A    between atoms: _272  and  _274
REMARK  114  A    between atoms: _274  and  _275
REMARK  115  A    between atoms: _274  and  _277
REMARK  116  A    between atoms: _277  and  _278
REMARK  117  A    between atoms: _278  and  _279
REMARK  118  A    between atoms: _279  and  _280
REMARK  119  A    between atoms: _289  and  _291
REMARK  120  A    between atoms: _291  and  _292
REMARK  121  A    between atoms: _291  and  _294
REMARK  122  A    between atoms: _294  and  _295
REMARK  123  A    between atoms: _298  and  _300
REMARK  124  A    between atoms: _300  and  _301
REMARK  125  A    between atoms: _300  and  _303
REMARK  126  A    between atoms: _303  and  _304
REMARK  127  A    between atoms: _307  and  _309
REMARK  128  A    between atoms: _309  and  _310
REMARK  129  A    between atoms: _309  and  _312
REMARK  130  A    between atoms: _312  and  _313
REMARK  131  A    between atoms: _316  and  _318
REMARK  132  A    between atoms: _318  and  _319
REMARK  133  A    between atoms: _318  and  _321
REMARK  134  A    between atoms: _321  and  _322
REMARK  135  A    between atoms: _325  and  _327
REMARK  136  A    between atoms: _327  and  _328
REMARK  137  A    between atoms: _330  and  _332
REMARK  138  A    between atoms: _332  and  _333
REMARK  139  A    between atoms: _336  and  _338
REMARK  140  A    between atoms: _338  and  _339
REMARK  141  A    between atoms: _338  and  _341
REMARK  142  A    between atoms: _341  and  _342
REMARK  143  A    between atoms: _345  and  _347
REMARK  144  A    between atoms: _347  and  _348
REMARK  145  A    between atoms: _347  and  _350
REMARK  146  A    between atoms: _350  and  _351
REMARK  147  A    between atoms: _354  and  _356
REMARK  148  A    between atoms: _356  and  _357
REMARK  149  A    between atoms: _356  and  _359
REMARK  150  A    between atoms: _359  and  _360
REMARK  151  A    between atoms: _363  and  _365
REMARK  152  A    between atoms: _365  and  _366
REMARK  153  A    between atoms: _365  and  _368
REMARK  154  A    between atoms: _371  and  _373
REMARK  155  A    between atoms: _373  and  _374
REMARK  156  A    between atoms: _373  and  _376
REMARK  157  A    between atoms: _376  and  _377
REMARK  158  A    between atoms: _377  and  _378
REMARK  159  A    between atoms: _378  and  _379
REMARK  160  A    between atoms: _379  and  _380
REMARK  161  A    between atoms: _384  and  _386
REMARK  162  A    between atoms: _386  and  _387
REMARK  163  A    between atoms: _386  and  _389
REMARK  164  A    between atoms: _389  and  _390
REMARK  165  A    between atoms: _390  and  _391
REMARK  166  A    between atoms: _393  and  _395
REMARK  167  A    between atoms: _395  and  _396
REMARK  168  A    between atoms: _395  and  _398
REMARK  169  A    between atoms: _398  and  _399
REMARK  170  A    between atoms: _402  and  _404
REMARK  171  A    between atoms: _404  and  _405
REMARK  172  A    between atoms: _407  and  _409
REMARK  173  A    between atoms: _409  and  _410
REMARK  174  A    between atoms: _412  and  _414
REMARK  175  A    between atoms: _414  and  _415
REMARK  176  A    between atoms: _414  and  _417
REMARK  177  A    between atoms: _417  and  _418
REMARK  178  A    between atoms: _421  and  _423
REMARK  179  A    between atoms: _423  and  _424
REMARK  180  A    between atoms: _426  and  _428
REMARK  181  A    between atoms: _428  and  _429
REMARK  182  A    between atoms: _431  and  _433
REMARK  183  A    between atoms: _433  and  _434
REMARK  184  A    between atoms: _433  and  _436
REMARK  185  A    between atoms: _436  and  _437
REMARK  186  A    between atoms: _443  and  _445
REMARK  187  A    between atoms: _445  and  _446
REMARK  188  A    between atoms: _445  and  _448
REMARK  189  A    between atoms: _448  and  _449
REMARK  190  A    between atoms: _452  and  _454
REMARK  191  A    between atoms: _454  and  _455
REMARK  192  A    between atoms: _454  and  _457
REMARK  193  A    between atoms: _457  and  _458
REMARK  194  A    between atoms: _461  and  _463
REMARK  195  A    between atoms: _463  and  _464
REMARK  196  A    between atoms: _463  and  _466
REMARK  197  A    between atoms: _466  and  _467
REMARK  198  A    between atoms: _471  and  _472
REMARK  199  A    between atoms: _477  and  _479
REMARK  200  A    between atoms: _479  and  _480
REMARK  201  A    between atoms: _479  and  _482
REMARK  202  A    between atoms: _485  and  _487
REMARK  203  A    between atoms: _487  and  _488
REMARK  204  A    between atoms: _487  and  _490
REMARK  205  A    between atoms: _490  and  _491
REMARK  206  A    between atoms: _496  and  _498
REMARK  207  A    between atoms: _498  and  _499
REMARK  208  A    between atoms: _498  and  _501
REMARK  209  A    between atoms: _501  and  _502
REMARK  210  A    between atoms: _505  and  _507
REMARK  211  A    between atoms: _507  and  _508
REMARK  212  A    between atoms: _507  and  _510
REMARK  213  A    between atoms: _510  and  _511
REMARK  214  A    between atoms: _514  and  _516
REMARK  215  A    between atoms: _516  and  _517
REMARK  216  A    between atoms: _519  and  _521
REMARK  217  A    between atoms: _521  and  _522
REMARK  218  A    between atoms: _521  and  _524
REMARK  219  A    between atoms: _524  and  _525
REMARK  220  A    between atoms: _525  and  _526
REMARK  221  A    between atoms: _526  and  _527
REMARK  222  A    between atoms: _536  and  _538
REMARK  223  A    between atoms: _538  and  _539
REMARK  224  A    between atoms: _538  and  _541
REMARK  225  A    between atoms: _541  and  _542
REMARK                            x       y       z     vdW  Elec       q    Type
REMARK                         _______ _______ _______ _____ _____    ______ ____
ROOT
ATOM      1  C   ILE A   5      12.892  29.821  11.461  0.00  0.00    +0.241 C 
ATOM      2  N   ILE A   6      12.135  30.576  12.255  0.00  0.00    -0.297 N 
ATOM      3  H   ILE A   6      11.362  30.128  12.787  0.00  0.00    +0.150 HD
ATOM      4  O   ILE A   5      13.803  30.271  10.763  0.00  0.00    -0.273 OA
ENDROOT
BRANCH   2   5
ATOM      5  CA  ILE A   6      12.354  32.016  12.404  0.00  0.00    +0.149 C 
BRANCH   5   6
ATOM      6  C   ILE A   6      13.076  32.184  13.744  0.00  0.00    +0.241 C 
ATOM      7  O   ILE A   6      12.495  31.946  14.809  0.00  0.00    -0.273 OA
ATOM      8  N   GLY A   7      14.355  32.551  13.673  0.00  0.00    -0.295 N 
ATOM      9  H   GLY A   7      14.785  32.728  12.743  0.00  0.00    +0.150 HD
BRANCH   8  10
ATOM     10  CA  GLY A   7      15.159  32.708  14.871  0.00  0.00    +0.176 C 
BRANCH  10  11
ATOM     11  C   GLY A   7      15.052  34.052  15.564  0.00  0.00    +0.243 C 
ATOM     12  N   ARG A   8      15.726  34.164  16.709  0.00  0.00    -0.297 N 
ATOM     13  H   ARG A   8      16.281  33.351  17.045  0.00  0.00    +0.150 HD
ATOM     14  O   GLY A   7      14.406  34.972  15.060  0.00  0.00    -0.273 OA
BRANCH  12  15
ATOM     15  CA  ARG A   8      15.715  35.384  17.509  0.00  0.00    +0.149 C 
BRANCH  15  16
ATOM     16  C   ARG A   8      16.209  36.611  16.753  0.00  0.00    +0.241 C 
ATOM     17  O   ARG A   8      15.736  37.720  17.004  0.00  0.00    -0.273 OA
ATOM     18  N   ASN A   9      17.143  36.423  15.821  0.00  0.00    -0.298 N 
ATOM     19  H   ASN A   9      17.496  35.464  15.625  0.00  0.00    +0.150 HD
BRANCH  18  20
ATOM     20  CA  ASN A   9      17.671  37.560  15.076  0.00  0.00    +0.146 C 
BRANCH  20  21
ATOM     21  C   ASN A   9      16.579  38.322  14.322  0.00  0.00    +0.227 C 
ATOM     22  O   ASN A   9      16.723  39.513  14.063  0.00  0.00    -0.286 OA
ENDBRANCH  20  21
BRANCH  20  23
ATOM     23  CB  ASN A   9      18.824  37.145  14.154  0.00  0.00    +0.112 C 
BRANCH  23  24
ATOM     24  CG  ASN A   9      18.363  36.724  12.785  0.00  0.00    +0.222 C 
ATOM     25  OD1 ASN A   9      17.899  35.597  12.586  0.00  0.00    -0.275 OA
ATOM     26  ND2 ASN A   9      18.496  37.631  11.818  0.00  0.00    -0.329 N 
ATOM     27 HD21 ASN A   9      18.893  38.568  12.035  0.00  0.00    +0.145 HD
ATOM     28 HD22 ASN A   9      18.203  37.402  10.847  0.00  0.00    +0.145 HD
ENDBRANCH  23  24
ENDBRANCH  20  23
ENDBRANCH  18  20
ENDBRANCH  15  16
BRANCH  15  29
ATOM     29  CB  ARG A   8      16.549  35.206  18.778  0.00  0.00    +0.033 C 
BRANCH  29  30
ATOM     30  CG  ARG A   8      16.006  34.167  19.750  0.00  0.00    +0.045 C 
BRANCH  30  31
ATOM     31  CD  ARG A   8      16.822  34.130  21.045  0.00  0.00    +0.174 C 
BRANCH  31  32
ATOM     32  NE  ARG A   8      18.203  33.706  20.821  0.00  0.00    -0.265 N 
ATOM     33  CZ  ARG A   8      19.254  34.522  20.791  0.00  0.00    +0.342 C 
ATOM     34  NH2 ARG A   8      19.096  35.829  20.974  0.00  0.00    -0.292 N 
ATOM     35 HH21 ARG A   8      18.147  36.220  21.142  0.00  0.00    +0.255 HD
ATOM     36 HH22 ARG A   8      19.922  36.461  20.949  0.00  0.00    +0.255 HD
ATOM     37  NH1 ARG A   8      20.465  34.032  20.564  0.00  0.00    -0.292 N 
ATOM     38 HH11 ARG A   8      21.287  34.668  20.540  0.00  0.00    +0.255 HD
ATOM     39 HH12 ARG A   8      20.593  33.011  20.410  0.00  0.00    +0.255 HD
ATOM     40  HE  ARG A   8      18.377  32.691  20.674  0.00  0.00    +0.259 HD
ENDBRANCH  31  32
ENDBRANCH  30  31
ENDBRANCH  29  30
ENDBRANCH  15  29
ENDBRANCH  12  15
ENDBRANCH  10  11
ENDBRANCH   8  10
ENDBRANCH   5   6
BRANCH   5  41
ATOM     41  CB  ILE A   6      11.034  32.830  12.425  0.00  0.00    +0.027 C 
ATOM     42  CG2 ILE A   6      11.341  34.328  12.520  0.00  0.00    +0.002 C 
BRANCH  41  43
ATOM     43  CG1 ILE A   6      10.219  32.561  11.159  0.00  0.00    +0.002 C 
ATOM     44  CD1 ILE A   6      10.951  32.876   9.891  0.00  0.00    +0.000 C 
ENDBRANCH  41  43
ENDBRANCH   5  41
ENDBRANCH   2   5
BRANCH   1  45
ATOM     45  CA  ILE A   5      12.585  28.329  11.457  0.00  0.00    +0.149 C 
BRANCH  45  48
ATOM     46  C   ASN A   4      11.407  27.147   9.666  0.00  0.00    +0.241 C 
ATOM     47  O   ASN A   4      10.359  27.046  10.314  0.00  0.00    -0.273 OA
ATOM     48  N   ILE A   5      12.490  27.766  10.117  0.00  0.00    -0.297 N 
ATOM     49  H   ILE A   5      13.310  27.854   9.484  0.00  0.00    +0.150 HD
BRANCH  46  50
ATOM     50  CA  ASN A   4      11.527  26.554   8.265  0.00  0.00    +0.158 C 
BRANCH  50  53
ATOM     51  C   VAL A   3      11.929  24.225   8.897  0.00  0.00    +0.241 C 
ATOM     52  O   VAL A   3      13.078  24.461   9.280  0.00  0.00    -0.273 OA
ATOM     53  N   ASN A   4      11.130  25.151   8.367  0.00  0.00    -0.297 N 
ATOM     54  H   ASN A   4      10.194  24.866   8.015  0.00  0.00    +0.150 HD
BRANCH  51  55
ATOM     55  CA  VAL A   3      11.366  22.807   8.979  0.00  0.00    +0.149 C 
BRANCH  55  57
ATOM     56  C   PRO A   2      12.256  20.653   8.266  0.00  0.00    +0.241 C 
ATOM     57  N   VAL A   3      12.452  21.844   8.831  0.00  0.00    -0.297 N 
ATOM     58  H   VAL A   3      13.402  22.093   9.175  0.00  0.00    +0.150 HD
ATOM     59  O   PRO A   2      11.166  20.296   7.823  0.00  0.00    -0.273 OA
BRANCH  56  65
ATOM     60  C   THR A   1      15.212  21.271   7.371  0.00  0.00    +0.244 C 
ATOM     61  N   PRO A   2      14.759  20.431   8.319  0.00  0.00    -0.272 N 
ATOM     62  CD  PRO A   2      15.438  20.022   9.562  0.00  0.00    +0.094 C 
ATOM     63  CG  PRO A   2      14.320  19.381  10.349  0.00  0.00    +0.024 C 
ATOM     64  CB  PRO A   2      13.504  18.710   9.304  0.00  0.00    +0.031 C 
ATOM     65  CA  PRO A   2      13.472  19.737   8.170  0.00  0.00    +0.152 C 
ATOM     66  O   THR A   1      14.575  21.498   6.343  0.00  0.00    -0.273 OA
BRANCH  60  67
ATOM     67  CA  THR A   1      16.563  21.946   7.609  0.00  0.00    +0.172 C 
BRANCH  67  68
ATOM     68  N   THR A   1      17.268  21.991   6.330  0.00  0.00    -0.236 NA
ATOM     69  H   THR A   1      17.212  22.851   5.747  0.00  0.00    +0.142 HD
ENDBRANCH  67  68
BRANCH  67  70
ATOM     70  CB  THR A   1      16.344  23.374   8.202  0.00  0.00    +0.135 C 
ATOM     71  CG2 THR A   1      15.650  24.298   7.193  0.00  0.00    +0.034 C 
BRANCH  70  72
ATOM     72  OG1 THR A   1      15.549  23.281   9.393  0.00  0.00    -0.383 OA
ATOM     73  HG1 THR A   1      14.673  22.877   9.173  0.00  0.00    +0.210 HD
ENDBRANCH  70  72
ENDBRANCH  67  70
ENDBRANCH  60  67
ENDBRANCH  56  65
ENDBRANCH  55  57
BRANCH  55  74
ATOM     74  CB  VAL A   3      10.640  22.632  10.346  0.00  0.00    +0.027 C 
ATOM     75  CG2 VAL A   3      11.606  22.859  11.478  0.00  0.00    +0.002 C 
ATOM     76  CG1 VAL A   3       9.473  23.604  10.474  0.00  0.00    +0.002 C 
ENDBRANCH  55  74
ENDBRANCH  51  55
ENDBRANCH  50  53
BRANCH  50  77
ATOM     77  CB  ASN A   4      10.624  27.299   7.288  0.00  0.00    +0.114 C 
BRANCH  77  78
ATOM     78  CG  ASN A   4      10.803  26.826   5.862  0.00  0.00    +0.222 C 
ATOM     79  OD1 ASN A   4      11.902  26.442   5.459  0.00  0.00    -0.275 OA
ATOM     80  ND2 ASN A   4       9.720  26.846   5.089  0.00  0.00    -0.329 N 
ATOM     81 HD21 ASN A   4       8.813  27.179   5.473  0.00  0.00    +0.145 HD
ATOM     82 HD22 ASN A   4       9.781  26.529   4.100  0.00  0.00    +0.145 HD
ENDBRANCH  77  78
ENDBRANCH  50  77
ENDBRANCH  46  50
ENDBRANCH  45  48
BRANCH  45  83
ATOM     83  CB  ILE A   5      13.727  27.599  12.220  0.00  0.00    +0.027 C 
ATOM     84  CG2 ILE A   5      14.120  28.340  13.482  0.00  0.00    +0.002 C 
BRANCH  83  85
ATOM     85  CG1 ILE A   5      13.329  26.153  12.519  0.00  0.00    +0.002 C 
ATOM     86  CD1 ILE A   5      14.508  25.285  12.894  0.00  0.00    +0.000 C 
ENDBRANCH  83  85
ENDBRANCH  45  83
ENDBRANCH   1  45
TORSDOF 32
REMARK  Name = ../refined-set-2016/2i4u/2i4u_pocket.pdb
REMARK  225 active torsions:
REMARK  status: ('A' for Active; 'I' for Inactive)
REMARK    1  A    between atoms: _1  and  _3
REMARK    2  A    between atoms: _3  and  _4
REMARK    3  A    between atoms: _3  and  _6
REMARK    4  A    between atoms: _6  and  _7
REMARK    5  A    between atoms: _7  and  _8
REMARK    6  A    between atoms: _8  and  _9
REMARK    7  A    between atoms: _18  and  _20
REMARK    8  A    between atoms: _20  and  _21
REMARK    9  A    between atoms: _20  and  _23
REMARK   10  A    between atoms: _23  and  _24
REMARK   11  A    between atoms: _27  and  _29
REMARK   12  A    between atoms: _29  and  _30
REMARK   13  A    between atoms: _29  and  _32
REMARK   14  A    between atoms: _32  and  _33
REMARK   15  A    between atoms: _36  and  _38
REMARK   16  A    between atoms: _38  and  _39
REMARK   17  A    between atoms: _38  and  _41
REMARK   18  A    between atoms: _41  and  _42
REMARK   19  A    between atoms: _45  and  _47
REMARK   20  A    between atoms: _47  and  _48
REMARK   21  A    between atoms: _47  and  _50
REMARK   22  A    between atoms: _50  and  _51
REMARK   23  A    between atoms: _54  and  _56
REMARK   24  A    between atoms: _56  and  _57
REMARK   25  A    between atoms: _59  and  _61
REMARK   26  A    between atoms: _61  and  _62
REMARK   27  A    between atoms: _65  and  _67
REMARK   28  A    between atoms: _67  and  _68
REMARK   29  A    between atoms: _67  and  _70
REMARK   30  A    between atoms: _70  and  _71
REMARK   31  A    between atoms: _74  and  _76
REMARK   32  A    between atoms: _76  and  _77
REMARK   33  A    between atoms: _76  and  _79
REMARK   34  A    between atoms: _79  and  _80
REMARK   35  A    between atoms: _83  and  _85
REMARK   36  A    between atoms: _85  and  _86
REMARK   37  A    between atoms: _85  and  _88
REMARK   38  A    between atoms: _88  and  _89
REMARK   39  A    between atoms: _92  and  _94
REMARK   40  A    between atoms: _94  and  _95
REMARK   41  A    between atoms: _94  and  _97
REMARK   42  A    between atoms: _100  and  _102
REMARK   43  A    between atoms: _102  and  _103
REMARK   44  A    between atoms: _102  and  _105
REMARK   45  A    between atoms: _105  and  _106
REMARK   46  A    between atoms: _106  and  _107
REMARK   47  A    between atoms: _107  and  _108
REMARK   48  A    between atoms: _108  and  _109
REMARK   49  A    between atoms: _113  and  _115
REMARK   50  A    between atoms: _115  and  _116
REMARK   51  A    between atoms: _115  and  _118
REMARK   52  A    between atoms: _118  and  _119
REMARK   53  A    between atoms: _119  and  _120
REMARK   54  A    between atoms: _122  and  _124
REMARK   55  A    between atoms: _124  and  _125
REMARK   56  A    between atoms: _124  and  _127
REMARK   57  A    between atoms: _127  and  _128
REMARK   58  A    between atoms: _131  and  _133
REMARK   59  A    between atoms: _133  and  _134
REMARK   60  A    between atoms: _136  and  _138
REMARK   61  A    between atoms: _138  and  _139
REMARK   62  A    between atoms: _141  and  _143
REMARK   63  A    between atoms: _143  and  _144
REMARK   64  A    between atoms: _143  and  _146
REMARK   65  A    between atoms: _146  and  _147
REMARK   66  A    between atoms: _150  and  _152
REMARK   67  A    between atoms: _152  and  _153
REMARK   68  A    between atoms: _155  and  _157
REMARK   69  A    between atoms: _157  and  _158
REMARK   70  A    between atoms: _160  and  _162
REMARK   71  A    between atoms: _162  and  _163
REMARK   72  A    between atoms: _162  and  _165
REMARK   73  A    between atoms: _165  and  _166
REMARK   74  A    between atoms: _169  and  _171
REMARK   75  A    between atoms: _171  and  _172
REMARK   76  A    between atoms: _171  and  _174
REMARK   77  A    between atoms: _177  and  _179
REMARK   78  A    between atoms: _179  and  _180
REMARK   79  A    between atoms: _179  and  _182
REMARK   80  A    between atoms: _182  and  _183
REMARK   81  A    between atoms: _186  and  _188
REMARK   82  A    between atoms: _188  and  _189
REMARK   83  A    between atoms: _188  and  _191
REMARK   84  A    between atoms: _191  and  _192
REMARK   85  A    between atoms: _196  and  _197
REMARK   86  A    between atoms: _202  and  _204
REMARK   87  A    between atoms: _204  and  _205
REMARK   88  A    between atoms: _204  and  _207
REMARK   89  A    between atoms: _210  and  _212
REMARK   90  A    between atoms: _212  and  _213
REMARK   91  A    between atoms: _212  and  _215
REMARK   92  A    between atoms: _215  and  _216
REMARK   93  A    between atoms: _221  and  _223
REMARK   94  A    between atoms: _223  and  _224
REMARK   95  A    between atoms: _223  and  _226
REMARK   96  A    between atoms: _226  and  _227
REMARK   97  A    between atoms: _230  and  _232
REMARK   98  A    between atoms: _232  and  _233
REMARK   99  A    between atoms: _232  and  _235
REMARK  100  A    between atoms: _235  and  _236
REMARK  101  A    between atoms: _239  and  _241
REMARK  102  A    between atoms: _241  and  _242
REMARK  103  A    between atoms: _244  and  _246
REMARK  104  A    between atoms: _246  and  _247
REMARK  105  A    between atoms: _246  and  _249
REMARK  106  A    between atoms: _249  and  _250
REMARK  107  A    between atoms: _250  and  _251
REMARK  108  A    between atoms: _251  and  _252
REMARK  109  A    between atoms: _261  and  _263
REMARK  110  A    between atoms: _263  and  _264
REMARK  111  A    between atoms: _263  and  _266
REMARK  112  A    between atoms: _266  and  _267
REMARK  113  A    between atoms: _272  and  _274
REMARK  114  A    between atoms: _274  and  _275
REMARK  115  A    between atoms: _274  and  _277
REMARK  116  A    between atoms: _277  and  _278
REMARK  117  A    between atoms: _278  and  _279
REMARK  118  A    between atoms: _279  and  _280
REMARK  119  A    between atoms: _289  and  _291
REMARK  120  A    between atoms: _291  and  _292
REMARK  121  A    between atoms: _291  and  _294
REMARK  122  A    between atoms: _294  and  _295
REMARK  123  A    between atoms: _298  and  _300
REMARK  124  A    between atoms: _300  and  _301
REMARK  125  A    between atoms: _300  and  _303
REMARK  126  A    between atoms: _303  and  _304
REMARK  127  A    between atoms: _307  and  _309
REMARK  128  A    between atoms: _309  and  _310
REMARK  129  A    between atoms: _309  and  _312
REMARK  130  A    between atoms: _312  and  _313
REMARK  131  A    between atoms: _316  and  _318
REMARK  132  A    between atoms: _318  and  _319
REMARK  133  A    between atoms: _318  and  _321
REMARK  134  A    between atoms: _321  and  _322
REMARK  135  A    between atoms: _325  and  _327
REMARK  136  A    between atoms: _327  and  _328
REMARK  137  A    between atoms: _330  and  _332
REMARK  138  A    between atoms: _332  and  _333
REMARK  139  A    between atoms: _336  and  _338
REMARK  140  A    between atoms: _338  and  _339
REMARK  141  A    between atoms: _338  and  _341
REMARK  142  A    between atoms: _341  and  _342
REMARK  143  A    between atoms: _345  and  _347
REMARK  144  A    between atoms: _347  and  _348
REMARK  145  A    between atoms: _347  and  _350
REMARK  146  A    between atoms: _350  and  _351
REMARK  147  A    between atoms: _354  and  _356
REMARK  148  A    between atoms: _356  and  _357
REMARK  149  A    between atoms: _356  and  _359
REMARK  150  A    between atoms: _359  and  _360
REMARK  151  A    between atoms: _363  and  _365
REMARK  152  A    between atoms: _365  and  _366
REMARK  153  A    between atoms: _365  and  _368
REMARK  154  A    between atoms: _371  and  _373
REMARK  155  A    between atoms: _373  and  _374
REMARK  156  A    between atoms: _373  and  _376
REMARK  157  A    between atoms: _376  and  _377
REMARK  158  A    between atoms: _377  and  _378
REMARK  159  A    between atoms: _378  and  _379
REMARK  160  A    between atoms: _379  and  _380
REMARK  161  A    between atoms: _384  and  _386
REMARK  162  A    between atoms: _386  and  _387
REMARK  163  A    between atoms: _386  and  _389
REMARK  164  A    between atoms: _389  and  _390
REMARK  165  A    between atoms: _390  and  _391
REMARK  166  A    between atoms: _393  and  _395
REMARK  167  A    between atoms: _395  and  _396
REMARK  168  A    between atoms: _395  and  _398
REMARK  169  A    between atoms: _398  and  _399
REMARK  170  A    between atoms: _402  and  _404
REMARK  171  A    between atoms: _404  and  _405
REMARK  172  A    between atoms: _407  and  _409
REMARK  173  A    between atoms: _409  and  _410
REMARK  174  A    between atoms: _412  and  _414
REMARK  175  A    between atoms: _414  and  _415
REMARK  176  A    between atoms: _414  and  _417
REMARK  177  A    between atoms: _417  and  _418
REMARK  178  A    between atoms: _421  and  _423
REMARK  179  A    between atoms: _423  and  _424
REMARK  180  A    between atoms: _426  and  _428
REMARK  181  A    between atoms: _428  and  _429
REMARK  182  A    between atoms: _431  and  _433
REMARK  183  A    between atoms: _433  and  _434
REMARK  184  A    between atoms: _433  and  _436
REMARK  185  A    between atoms: _436  and  _437
REMARK  186  A    between atoms: _443  and  _445
REMARK  187  A    between atoms: _445  and  _446
REMARK  188  A    between atoms: _445  and  _448
REMARK  189  A    between atoms: _448  and  _449
REMARK  190  A    between atoms: _452  and  _454
REMARK  191  A    between atoms: _454  and  _455
REMARK  192  A    between atoms: _454  and  _457
REMARK  193  A    between atoms: _457  and  _458
REMARK  194  A    between atoms: _461  and  _463
REMARK  195  A    between atoms: _463  and  _464
REMARK  196  A    between atoms: _463  and  _466
REMARK  197  A    between atoms: _466  and  _467
REMARK  198  A    between atoms: _471  and  _472
REMARK  199  A    between atoms: _477  and  _479
REMARK  200  A    between atoms: _479  and  _480
REMARK  201  A    between atoms: _479  and  _482
REMARK  202  A    between atoms: _485  and  _487
REMARK  203  A    between atoms: _487  and  _488
REMARK  204  A    between atoms: _487  and  _490
REMARK  205  A    between atoms: _490  and  _491
REMARK  206  A    between atoms: _496  and  _498
REMARK  207  A    between atoms: _498  and  _499
REMARK  208  A    between atoms: _498  and  _501
REMARK  209  A    between atoms: _501  and  _502
REMARK  210  A    between atoms: _505  and  _507
REMARK  211  A    between atoms: _507  and  _508
REMARK  212  A    between atoms: _507  and  _510
REMARK  213  A    between atoms: _510  and  _511
REMARK  214  A    between atoms: _514  and  _516
REMARK  215  A    between atoms: _516  and  _517
REMARK  216  A    between atoms: _519  and  _521
REMARK  217  A    between atoms: _521  and  _522
REMARK  218  A    between atoms: _521  and  _524
REMARK  219  A    between atoms: _524  and  _525
REMARK  220  A    between atoms: _525  and  _526
REMARK  221  A    between atoms: _526  and  _527
REMARK  222  A    between atoms: _536  and  _538
REMARK  223  A    between atoms: _538  and  _539
REMARK  224  A    between atoms: _538  and  _541
REMARK  225  A    between atoms: _541  and  _542
REMARK                            x       y       z     vdW  Elec       q    Type
REMARK                         _______ _______ _______ _____ _____    ______ ____
ROOT
ATOM      1  NE  ARG A   1      22.813  30.990  23.344  0.00  0.00    -0.265 N 
ATOM      2  HE  ARG A   1      23.104  31.679  24.067  0.00  0.00    +0.259 HD
ATOM      3  CZ  ARG A   1      23.743  30.533  22.508  0.00  0.00    +0.342 C 
ATOM      4  NH2 ARG A   1      24.994  30.960  22.614  0.00  0.00    -0.292 N 
ATOM      5 HH21 ARG A   1      25.247  31.651  23.349  0.00  0.00    +0.255 HD
ATOM      6 HH22 ARG A   1      25.722  30.604  21.962  0.00  0.00    +0.255 HD
ATOM      7  NH1 ARG A   1      23.430  29.646  21.569  0.00  0.00    -0.292 N 
ATOM      8 HH11 ARG A   1      22.452  29.303  21.483  0.00  0.00    +0.255 HD
ATOM      9 HH12 ARG A   1      24.163  29.295  20.920  0.00  0.00    +0.255 HD
ENDROOT
BRANCH   1  10
ATOM     10  CD  ARG A   1      21.413  30.586  23.310  0.00  0.00    +0.174 C 
BRANCH  10  11
ATOM     11  CG  ARG A   1      20.489  31.774  23.227  0.00  0.00    +0.045 C 
BRANCH  11  12
ATOM     12  CB  ARG A   1      20.089  32.276  24.596  0.00  0.00    +0.029 C 
BRANCH  12  13
ATOM     13  CA  ARG A   1      19.072  33.418  24.539  0.00  0.00    +0.133 C 
BRANCH  13  14
ATOM     14  N   ARG A   1      19.745  34.701  24.389  0.00  0.00    -0.239 NA
ATOM     15  H   ARG A   1      20.784  34.746  24.411  0.00  0.00    +0.142 HD
ENDBRANCH  13  14
BRANCH  13  16
ATOM     16  C   ARG A   1      18.237  33.430  25.810  0.00  0.00    +0.224 C 
ATOM     17  O   ARG A   1      18.706  33.866  26.858  0.00  0.00    -0.287 OA
ENDBRANCH  13  16
ENDBRANCH  12  13
ENDBRANCH  11  12
ENDBRANCH  10  11
ENDBRANCH   1  10
TORSDOF 6
REMARK  Name = ../refined-set-2016/2i4u/2i4u_pocket.pdb
REMARK  225 active torsions:
REMARK  status: ('A' for Active; 'I' for Inactive)
REMARK    1  A    between atoms: _1  and  _3
REMARK    2  A    between atoms: _3  and  _4
REMARK    3  A    between atoms: _3  and  _6
REMARK    4  A    between atoms: _6  and  _7
REMARK    5  A    between atoms: _7  and  _8
REMARK    6  A    between atoms: _8  and  _9
REMARK    7  A    between atoms: _18  and  _20
REMARK    8  A    between atoms: _20  and  _21
REMARK    9  A    between atoms: _20  and  _23
REMARK   10  A    between atoms: _23  and  _24
REMARK   11  A    between atoms: _27  and  _29
REMARK   12  A    between atoms: _29  and  _30
REMARK   13  A    between atoms: _29  and  _32
REMARK   14  A    between atoms: _32  and  _33
REMARK   15  A    between atoms: _36  and  _38
REMARK   16  A    between atoms: _38  and  _39
REMARK   17  A    between atoms: _38  and  _41
REMARK   18  A    between atoms: _41  and  _42
REMARK   19  A    between atoms: _45  and  _47
REMARK   20  A    between atoms: _47  and  _48
REMARK   21  A    between atoms: _47  and  _50
REMARK   22  A    between atoms: _50  and  _51
REMARK   23  A    between atoms: _54  and  _56
REMARK   24  A    between atoms: _56  and  _57
REMARK   25  A    between atoms: _59  and  _61
REMARK   26  A    between atoms: _61  and  _62
REMARK   27  A    between atoms: _65  and  _67
REMARK   28  A    between atoms: _67  and  _68
REMARK   29  A    between atoms: _67  and  _70
REMARK   30  A    between atoms: _70  and  _71
REMARK   31  A    between atoms: _74  and  _76
REMARK   32  A    between atoms: _76  and  _77
REMARK   33  A    between atoms: _76  and  _79
REMARK   34  A    between atoms: _79  and  _80
REMARK   35  A    between atoms: _83  and  _85
REMARK   36  A    between atoms: _85  and  _86
REMARK   37  A    between atoms: _85  and  _88
REMARK   38  A    between atoms: _88  and  _89
REMARK   39  A    between atoms: _92  and  _94
REMARK   40  A    between atoms: _94  and  _95
REMARK   41  A    between atoms: _94  and  _97
REMARK   42  A    between atoms: _100  and  _102
REMARK   43  A    between atoms: _102  and  _103
REMARK   44  A    between atoms: _102  and  _105
REMARK   45  A    between atoms: _105  and  _106
REMARK   46  A    between atoms: _106  and  _107
REMARK   47  A    between atoms: _107  and  _108
REMARK   48  A    between atoms: _108  and  _109
REMARK   49  A    between atoms: _113  and  _115
REMARK   50  A    between atoms: _115  and  _116
REMARK   51  A    between atoms: _115  and  _118
REMARK   52  A    between atoms: _118  and  _119
REMARK   53  A    between atoms: _119  and  _120
REMARK   54  A    between atoms: _122  and  _124
REMARK   55  A    between atoms: _124  and  _125
REMARK   56  A    between atoms: _124  and  _127
REMARK   57  A    between atoms: _127  and  _128
REMARK   58  A    between atoms: _131  and  _133
REMARK   59  A    between atoms: _133  and  _134
REMARK   60  A    between atoms: _136  and  _138
REMARK   61  A    between atoms: _138  and  _139
REMARK   62  A    between atoms: _141  and  _143
REMARK   63  A    between atoms: _143  and  _144
REMARK   64  A    between atoms: _143  and  _146
REMARK   65  A    between atoms: _146  and  _147
REMARK   66  A    between atoms: _150  and  _152
REMARK   67  A    between atoms: _152  and  _153
REMARK   68  A    between atoms: _155  and  _157
REMARK   69  A    between atoms: _157  and  _158
REMARK   70  A    between atoms: _160  and  _162
REMARK   71  A    between atoms: _162  and  _163
REMARK   72  A    between atoms: _162  and  _165
REMARK   73  A    between atoms: _165  and  _166
REMARK   74  A    between atoms: _169  and  _171
REMARK   75  A    between atoms: _171  and  _172
REMARK   76  A    between atoms: _171  and  _174
REMARK   77  A    between atoms: _177  and  _179
REMARK   78  A    between atoms: _179  and  _180
REMARK   79  A    between atoms: _179  and  _182
REMARK   80  A    between atoms: _182  and  _183
REMARK   81  A    between atoms: _186  and  _188
REMARK   82  A    between atoms: _188  and  _189
REMARK   83  A    between atoms: _188  and  _191
REMARK   84  A    between atoms: _191  and  _192
REMARK   85  A    between atoms: _196  and  _197
REMARK   86  A    between atoms: _202  and  _204
REMARK   87  A    between atoms: _204  and  _205
REMARK   88  A    between atoms: _204  and  _207
REMARK   89  A    between atoms: _210  and  _212
REMARK   90  A    between atoms: _212  and  _213
REMARK   91  A    between atoms: _212  and  _215
REMARK   92  A    between atoms: _215  and  _216
REMARK   93  A    between atoms: _221  and  _223
REMARK   94  A    between atoms: _223  and  _224
REMARK   95  A    between atoms: _223  and  _226
REMARK   96  A    between atoms: _226  and  _227
REMARK   97  A    between atoms: _230  and  _232
REMARK   98  A    between atoms: _232  and  _233
REMARK   99  A    between atoms: _232  and  _235
REMARK  100  A    between atoms: _235  and  _236
REMARK  101  A    between atoms: _239  and  _241
REMARK  102  A    between atoms: _241  and  _242
REMARK  103  A    between atoms: _244  and  _246
REMARK  104  A    between atoms: _246  and  _247
REMARK  105  A    between atoms: _246  and  _249
REMARK  106  A    between atoms: _249  and  _250
REMARK  107  A    between atoms: _250  and  _251
REMARK  108  A    between atoms: _251  and  _252
REMARK  109  A    between atoms: _261  and  _263
REMARK  110  A    between atoms: _263  and  _264
REMARK  111  A    between atoms: _263  and  _266
REMARK  112  A    between atoms: _266  and  _267
REMARK  113  A    between atoms: _272  and  _274
REMARK  114  A    between atoms: _274  and  _275
REMARK  115  A    between atoms: _274  and  _277
REMARK  116  A    between atoms: _277  and  _278
REMARK  117  A    between atoms: _278  and  _279
REMARK  118  A    between atoms: _279  and  _280
REMARK  119  A    between atoms: _289  and  _291
REMARK  120  A    between atoms: _291  and  _292
REMARK  121  A    between atoms: _291  and  _294
REMARK  122  A    between atoms: _294  and  _295
REMARK  123  A    between atoms: _298  and  _300
REMARK  124  A    between atoms: _300  and  _301
REMARK  125  A    between atoms: _300  and  _303
REMARK  126  A    between atoms: _303  and  _304
REMARK  127  A    between atoms: _307  and  _309
REMARK  128  A    between atoms: _309  and  _310
REMARK  129  A    between atoms: _309  and  _312
REMARK  130  A    between atoms: _312  and  _313
REMARK  131  A    between atoms: _316  and  _318
REMARK  132  A    between atoms: _318  and  _319
REMARK  133  A    between atoms: _318  and  _321
REMARK  134  A    between atoms: _321  and  _322
REMARK  135  A    between atoms: _325  and  _327
REMARK  136  A    between atoms: _327  and  _328
REMARK  137  A    between atoms: _330  and  _332
REMARK  138  A    between atoms: _332  and  _333
REMARK  139  A    between atoms: _336  and  _338
REMARK  140  A    between atoms: _338  and  _339
REMARK  141  A    between atoms: _338  and  _341
REMARK  142  A    between atoms: _341  and  _342
REMARK  143  A    between atoms: _345  and  _347
REMARK  144  A    between atoms: _347  and  _348
REMARK  145  A    between atoms: _347  and  _350
REMARK  146  A    between atoms: _350  and  _351
REMARK  147  A    between atoms: _354  and  _356
REMARK  148  A    between atoms: _356  and  _357
REMARK  149  A    between atoms: _356  and  _359
REMARK  150  A    between atoms: _359  and  _360
REMARK  151  A    between atoms: _363  and  _365
REMARK  152  A    between atoms: _365  and  _366
REMARK  153  A    between atoms: _365  and  _368
REMARK  154  A    between atoms: _371  and  _373
REMARK  155  A    between atoms: _373  and  _374
REMARK  156  A    between atoms: _373  and  _376
REMARK  157  A    between atoms: _376  and  _377
REMARK  158  A    between atoms: _377  and  _378
REMARK  159  A    between atoms: _378  and  _379
REMARK  160  A    between atoms: _379  and  _380
REMARK  161  A    between atoms: _384  and  _386
REMARK  162  A    between atoms: _386  and  _387
REMARK  163  A    between atoms: _386  and  _389
REMARK  164  A    between atoms: _389  and  _390
REMARK  165  A    between atoms: _390  and  _391
REMARK  166  A    between atoms: _393  and  _395
REMARK  167  A    between atoms: _395  and  _396
REMARK  168  A    between atoms: _395  and  _398
REMARK  169  A    between atoms: _398  and  _399
REMARK  170  A    between atoms: _402  and  _404
REMARK  171  A    between atoms: _404  and  _405
REMARK  172  A    between atoms: _407  and  _409
REMARK  173  A    between atoms: _409  and  _410
REMARK  174  A    between atoms: _412  and  _414
REMARK  175  A    between atoms: _414  and  _415
REMARK  176  A    between atoms: _414  and  _417
REMARK  177  A    between atoms: _417  and  _418
REMARK  178  A    between atoms: _421  and  _423
REMARK  179  A    between atoms: _423  and  _424
REMARK  180  A    between atoms: _426  and  _428
REMARK  181  A    between atoms: _428  and  _429
REMARK  182  A    between atoms: _431  and  _433
REMARK  183  A    between atoms: _433  and  _434
REMARK  184  A    between atoms: _433  and  _436
REMARK  185  A    between atoms: _436  and  _437
REMARK  186  A    between atoms: _443  and  _445
REMARK  187  A    between atoms: _445  and  _446
REMARK  188  A    between atoms: _445  and  _448
REMARK  189  A    between atoms: _448  and  _449
REMARK  190  A    between atoms: _452  and  _454
REMARK  191  A    between atoms: _454  and  _455
REMARK  192  A    between atoms: _454  and  _457
REMARK  193  A    between atoms: _457  and  _458
REMARK  194  A    between atoms: _461  and  _463
REMARK  195  A    between atoms: _463  and  _464
REMARK  196  A    between atoms: _463  and  _466
REMARK  197  A    between atoms: _466  and  _467
REMARK  198  A    between atoms: _471  and  _472
REMARK  199  A    between atoms: _477  and  _479
REMARK  200  A    between atoms: _479  and  _480
REMARK  201  A    between atoms: _479  and  _482
REMARK  202  A    between atoms: _485  and  _487
REMARK  203  A    between atoms: _487  and  _488
REMARK  204  A    between atoms: _487  and  _490
REMARK  205  A    between atoms: _490  and  _491
REMARK  206  A    between atoms: _496  and  _498
REMARK  207  A    between atoms: _498  and  _499
REMARK  208  A    between atoms: _498  and  _501
REMARK  209  A    between atoms: _501  and  _502
REMARK  210  A    between atoms: _505  and  _507
REMARK  211  A    between atoms: _507  and  _508
REMARK  212  A    between atoms: _507  and  _510
REMARK  213  A    between atoms: _510  and  _511
REMARK  214  A    between atoms: _514  and  _516
REMARK  215  A    between atoms: _516  and  _517
REMARK  216  A    between atoms: _519  and  _521
REMARK  217  A    between atoms: _521  and  _522
REMARK  218  A    between atoms: _521  and  _524
REMARK  219  A    between atoms: _524  and  _525
REMARK  220  A    between atoms: _525  and  _526
REMARK  221  A    between atoms: _526  and  _527
REMARK  222  A    between atoms: _536  and  _538
REMARK  223  A    between atoms: _538  and  _539
REMARK  224  A    between atoms: _538  and  _541
REMARK  225  A    between atoms: _541  and  _542
REMARK                            x       y       z     vdW  Elec       q    Type
REMARK                         _______ _______ _______ _____ _____    ______ ____
ROOT
ATOM      1  C   GLY A   5      10.318  24.164  18.742  0.00  0.00    +0.243 C 
ATOM      2  N   ALA A   6      10.265  23.846  20.032  0.00  0.00    -0.297 N 
ATOM      3  H   ALA A   6      10.151  24.608  20.731  0.00  0.00    +0.150 HD
ATOM      4  O   GLY A   5      10.450  23.325  17.847  0.00  0.00    -0.273 OA
ENDROOT
BRANCH   2   5
ATOM      5  CA  ALA A   6      10.360  22.470  20.505  0.00  0.00    +0.149 C 
ATOM      6  CB  ALA A   6      11.405  22.376  21.609  0.00  0.00    +0.031 C 
BRANCH   5   7
ATOM      7  C   ALA A   6       9.013  21.984  21.025  0.00  0.00    +0.241 C 
ATOM      8  O   ALA A   6       8.415  22.631  21.882  0.00  0.00    -0.273 OA
ATOM      9  N   ASP A   7       8.526  20.861  20.495  0.00  0.00    -0.297 N 
ATOM     10  H   ASP A   7       9.059  20.378  19.744  0.00  0.00    +0.150 HD
BRANCH   9  11
ATOM     11  CA  ASP A   7       7.252  20.296  20.953  0.00  0.00    +0.160 C 
BRANCH  11  12
ATOM     12  C   ASP A   7       7.426  19.751  22.368  0.00  0.00    +0.241 C 
ATOM     13  O   ASP A   7       6.551  19.909  23.222  0.00  0.00    -0.273 OA
ATOM     14  N   ASP A   8       8.570  19.111  22.597  0.00  0.00    -0.297 N 
ATOM     15  H   ASP A   8       9.271  19.050  21.831  0.00  0.00    +0.150 HD
BRANCH  14  16
ATOM     16  CA  ASP A   8       8.878  18.494  23.878  0.00  0.00    +0.160 C 
BRANCH  16  17
ATOM     17  C   ASP A   8      10.087  19.076  24.598  0.00  0.00    +0.241 C 
ATOM     18  N   THR A   9      10.169  18.755  25.884  0.00  0.00    -0.295 N 
ATOM     19  H   THR A   9       9.415  18.168  26.295  0.00  0.00    +0.150 HD
ATOM     20  O   ASP A   8      10.927  19.761  24.007  0.00  0.00    -0.273 OA
BRANCH  18  21
ATOM     21  CA  THR A   9      11.260  19.183  26.747  0.00  0.00    +0.176 C 
BRANCH  21  22
ATOM     22  C   THR A   9      12.338  18.096  26.731  0.00  0.00    +0.243 C 
ATOM     23  O   THR A   9      12.060  16.931  27.036  0.00  0.00    -0.273 OA
ATOM     24  N   VAL A  10      13.550  18.477  26.333  0.00  0.00    -0.298 N 
ATOM     25  H   VAL A  10      13.707  19.472  26.075  0.00  0.00    +0.150 HD
BRANCH  24  26
ATOM     26  CA  VAL A  10      14.667  17.538  26.248  0.00  0.00    +0.137 C 
BRANCH  26  27
ATOM     27  CB  VAL A  10      15.174  17.380  24.777  0.00  0.00    +0.026 C 
ATOM     28  CG2 VAL A  10      16.146  16.202  24.669  0.00  0.00    +0.002 C 
ATOM     29  CG1 VAL A  10      14.007  17.187  23.818  0.00  0.00    +0.002 C 
ENDBRANCH  26  27
BRANCH  26  30
ATOM     30  C   VAL A  10      15.820  18.032  27.116  0.00  0.00    +0.227 C 
ATOM     31  O   VAL A  10      16.323  19.135  26.916  0.00  0.00    -0.286 OA
ENDBRANCH  26  30
ENDBRANCH  24  26
ENDBRANCH  21  22
BRANCH  21  32
ATOM     32  CB  THR A   9      10.746  19.399  28.177  0.00  0.00    +0.137 C 
ATOM     33  CG2 THR A   9      11.894  19.681  29.134  0.00  0.00    +0.034 C 
BRANCH  32  34
ATOM     34  OG1 THR A   9       9.819  20.495  28.184  0.00  0.00    -0.382 OA
ATOM     35  HG1 THR A   9       9.059  20.287  27.585  0.00  0.00    +0.210 HD
ENDBRANCH  32  34
ENDBRANCH  21  32
ENDBRANCH  18  21
ENDBRANCH  16  17
BRANCH  16  36
ATOM     36  CB  ASP A   8       9.120  16.995  23.679  0.00  0.00    +0.143 C 
BRANCH  36  37
ATOM     37  CG  ASP A   8       8.120  16.362  22.734  0.00  0.00    +0.367 C 
ATOM     38  OD2 ASP A   8       6.911  16.430  23.018  0.00  0.00    -0.246 OA
ATOM     39  OD1 ASP A   8       8.551  15.809  21.700  0.00  0.00    -0.246 OA
ENDBRANCH  36  37
ENDBRANCH  16  36
ENDBRANCH  14  16
ENDBRANCH  11  12
BRANCH  11  40
ATOM     40  CB  ASP A   7       6.804  19.127  20.066  0.00  0.00    +0.143 C 
BRANCH  40  41
ATOM     41  CG  ASP A   7       6.582  19.523  18.617  0.00  0.00    +0.367 C 
ATOM     42  OD2 ASP A   7       6.320  20.712  18.324  0.00  0.00    -0.246 OA
ATOM     43  OD1 ASP A   7       6.662  18.618  17.763  0.00  0.00    -0.246 OA
ENDBRANCH  40  41
ENDBRANCH  11  40
ENDBRANCH   9  11
ENDBRANCH   5   7
ENDBRANCH   2   5
BRANCH   1  44
ATOM     44  CA  GLY A   5      10.210  25.647  18.414  0.00  0.00    +0.176 C 
BRANCH  44  47
ATOM     45  C   THR A   4       8.914  26.744  20.145  0.00  0.00    +0.243 C 
ATOM     46  O   THR A   4       7.852  26.323  19.673  0.00  0.00    -0.273 OA
ATOM     47  N   GLY A   5      10.102  26.479  19.602  0.00  0.00    -0.295 N 
ATOM     48  H   GLY A   5      10.963  26.872  20.033  0.00  0.00    +0.150 HD
BRANCH  45  49
ATOM     49  CA  THR A   4       8.911  27.617  21.408  0.00  0.00    +0.176 C 
BRANCH  49  52
ATOM     50  C   ASP A   3      10.749  26.678  22.678  0.00  0.00    +0.241 C 
ATOM     51  O   ASP A   3      10.197  25.583  22.733  0.00  0.00    -0.273 OA
ATOM     52  N   THR A   4      10.227  27.709  22.025  0.00  0.00    -0.295 N 
ATOM     53  H   THR A   4      10.766  28.596  21.953  0.00  0.00    +0.150 HD
BRANCH  50  54
ATOM     54  CA  ASP A   3      12.138  26.881  23.277  0.00  0.00    +0.160 C 
BRANCH  54  56
ATOM     55  C   LEU A   2      12.711  28.329  25.161  0.00  0.00    +0.241 C 
ATOM     56  N   ASP A   3      12.185  27.201  24.696  0.00  0.00    -0.297 N 
ATOM     57  H   ASP A   3      11.790  26.518  25.374  0.00  0.00    +0.150 HD
ATOM     58  O   LEU A   2      13.109  29.246  24.439  0.00  0.00    -0.273 OA
BRANCH  55  59
ATOM     59  CA  LEU A   2      12.789  28.440  26.680  0.00  0.00    +0.149 C 
BRANCH  59  61
ATOM     60  C   LEU A   1      14.919  27.231  26.822  0.00  0.00    +0.238 C 
ATOM     61  N   LEU A   2      14.227  28.364  26.966  0.00  0.00    -0.297 N 
ATOM     62  H   LEU A   2      14.722  29.219  27.291  0.00  0.00    +0.150 HD
ATOM     63  O   LEU A   1      14.394  26.163  26.513  0.00  0.00    -0.274 OA
BRANCH  60  64
ATOM     64  CA  LEU A   1      16.424  27.299  27.099  0.00  0.00    +0.145 C 
BRANCH  64  65
ATOM     65  N   LEU A   1      16.849  26.358  28.123  0.00  0.00    -0.238 NA
ATOM     66  H   LEU A   1      16.989  25.363  27.856  0.00  0.00    +0.142 HD
ENDBRANCH  64  65
BRANCH  64  67
ATOM     67  CB  LEU A   1      17.205  26.996  25.813  0.00  0.00    +0.026 C 
BRANCH  67  68
ATOM     68  CG  LEU A   1      17.028  27.876  24.579  0.00  0.00    +0.002 C 
ATOM     69  CD2 LEU A   1      17.580  29.261  24.859  0.00  0.00    +0.000 C 
ATOM     70  CD1 LEU A   1      17.752  27.241  23.394  0.00  0.00    +0.000 C 
ENDBRANCH  67  68
ENDBRANCH  64  67
ENDBRANCH  60  64
ENDBRANCH  59  61
BRANCH  59  71
ATOM     71  CB  LEU A   2      12.210  29.769  27.162  0.00  0.00    +0.029 C 
BRANCH  71  72
ATOM     72  CG  LEU A   2      12.339  30.009  28.667  0.00  0.00    +0.002 C 
ATOM     73  CD2 LEU A   2      11.683  28.854  29.428  0.00  0.00    +0.000 C 
ATOM     74  CD1 LEU A   2      11.691  31.342  29.032  0.00  0.00    +0.000 C 
ENDBRANCH  71  72
ENDBRANCH  59  71
ENDBRANCH  55  59
ENDBRANCH  54  56
BRANCH  54  75
ATOM     75  CB  ASP A   3      12.983  25.614  23.076  0.00  0.00    +0.143 C 
BRANCH  75  76
ATOM     76  CG  ASP A   3      13.440  25.420  21.648  0.00  0.00    +0.367 C 
ATOM     77  OD2 ASP A   3      14.372  24.617  21.448  0.00  0.00    -0.246 OA
ATOM     78  OD1 ASP A   3      12.878  26.058  20.731  0.00  0.00    -0.246 OA
ENDBRANCH  75  76
ENDBRANCH  54  75
ENDBRANCH  50  54
ENDBRANCH  49  52
BRANCH  49  79
ATOM     79  CB  THR A   4       8.354  29.017  21.069  0.00  0.00    +0.137 C 
ATOM     80  CG2 THR A   4       8.184  29.842  22.337  0.00  0.00    +0.034 C 
BRANCH  79  81
ATOM     81  OG1 THR A   4       9.254  29.689  20.181  0.00  0.00    -0.382 OA
ATOM     82  HG1 THR A   4       9.350  29.162  19.349  0.00  0.00    +0.210 HD
ENDBRANCH  79  81
ENDBRANCH  49  79
ENDBRANCH  45  49
ENDBRANCH  44  47
ENDBRANCH   1  44
TORSDOF 35
REMARK  Name = ../refined-set-2016/2i4u/2i4u_pocket.pdb
REMARK  225 active torsions:
REMARK  status: ('A' for Active; 'I' for Inactive)
REMARK    1  A    between atoms: _1  and  _3
REMARK    2  A    between atoms: _3  and  _4
REMARK    3  A    between atoms: _3  and  _6
REMARK    4  A    between atoms: _6  and  _7
REMARK    5  A    between atoms: _7  and  _8
REMARK    6  A    between atoms: _8  and  _9
REMARK    7  A    between atoms: _18  and  _20
REMARK    8  A    between atoms: _20  and  _21
REMARK    9  A    between atoms: _20  and  _23
REMARK   10  A    between atoms: _23  and  _24
REMARK   11  A    between atoms: _27  and  _29
REMARK   12  A    between atoms: _29  and  _30
REMARK   13  A    between atoms: _29  and  _32
REMARK   14  A    between atoms: _32  and  _33
REMARK   15  A    between atoms: _36  and  _38
REMARK   16  A    between atoms: _38  and  _39
REMARK   17  A    between atoms: _38  and  _41
REMARK   18  A    between atoms: _41  and  _42
REMARK   19  A    between atoms: _45  and  _47
REMARK   20  A    between atoms: _47  and  _48
REMARK   21  A    between atoms: _47  and  _50
REMARK   22  A    between atoms: _50  and  _51
REMARK   23  A    between atoms: _54  and  _56
REMARK   24  A    between atoms: _56  and  _57
REMARK   25  A    between atoms: _59  and  _61
REMARK   26  A    between atoms: _61  and  _62
REMARK   27  A    between atoms: _65  and  _67
REMARK   28  A    between atoms: _67  and  _68
REMARK   29  A    between atoms: _67  and  _70
REMARK   30  A    between atoms: _70  and  _71
REMARK   31  A    between atoms: _74  and  _76
REMARK   32  A    between atoms: _76  and  _77
REMARK   33  A    between atoms: _76  and  _79
REMARK   34  A    between atoms: _79  and  _80
REMARK   35  A    between atoms: _83  and  _85
REMARK   36  A    between atoms: _85  and  _86
REMARK   37  A    between atoms: _85  and  _88
REMARK   38  A    between atoms: _88  and  _89
REMARK   39  A    between atoms: _92  and  _94
REMARK   40  A    between atoms: _94  and  _95
REMARK   41  A    between atoms: _94  and  _97
REMARK   42  A    between atoms: _100  and  _102
REMARK   43  A    between atoms: _102  and  _103
REMARK   44  A    between atoms: _102  and  _105
REMARK   45  A    between atoms: _105  and  _106
REMARK   46  A    between atoms: _106  and  _107
REMARK   47  A    between atoms: _107  and  _108
REMARK   48  A    between atoms: _108  and  _109
REMARK   49  A    between atoms: _113  and  _115
REMARK   50  A    between atoms: _115  and  _116
REMARK   51  A    between atoms: _115  and  _118
REMARK   52  A    between atoms: _118  and  _119
REMARK   53  A    between atoms: _119  and  _120
REMARK   54  A    between atoms: _122  and  _124
REMARK   55  A    between atoms: _124  and  _125
REMARK   56  A    between atoms: _124  and  _127
REMARK   57  A    between atoms: _127  and  _128
REMARK   58  A    between atoms: _131  and  _133
REMARK   59  A    between atoms: _133  and  _134
REMARK   60  A    between atoms: _136  and  _138
REMARK   61  A    between atoms: _138  and  _139
REMARK   62  A    between atoms: _141  and  _143
REMARK   63  A    between atoms: _143  and  _144
REMARK   64  A    between atoms: _143  and  _146
REMARK   65  A    between atoms: _146  and  _147
REMARK   66  A    between atoms: _150  and  _152
REMARK   67  A    between atoms: _152  and  _153
REMARK   68  A    between atoms: _155  and  _157
REMARK   69  A    between atoms: _157  and  _158
REMARK   70  A    between atoms: _160  and  _162
REMARK   71  A    between atoms: _162  and  _163
REMARK   72  A    between atoms: _162  and  _165
REMARK   73  A    between atoms: _165  and  _166
REMARK   74  A    between atoms: _169  and  _171
REMARK   75  A    between atoms: _171  and  _172
REMARK   76  A    between atoms: _171  and  _174
REMARK   77  A    between atoms: _177  and  _179
REMARK   78  A    between atoms: _179  and  _180
REMARK   79  A    between atoms: _179  and  _182
REMARK   80  A    between atoms: _182  and  _183
REMARK   81  A    between atoms: _186  and  _188
REMARK   82  A    between atoms: _188  and  _189
REMARK   83  A    between atoms: _188  and  _191
REMARK   84  A    between atoms: _191  and  _192
REMARK   85  A    between atoms: _196  and  _197
REMARK   86  A    between atoms: _202  and  _204
REMARK   87  A    between atoms: _204  and  _205
REMARK   88  A    between atoms: _204  and  _207
REMARK   89  A    between atoms: _210  and  _212
REMARK   90  A    between atoms: _212  and  _213
REMARK   91  A    between atoms: _212  and  _215
REMARK   92  A    between atoms: _215  and  _216
REMARK   93  A    between atoms: _221  and  _223
REMARK   94  A    between atoms: _223  and  _224
REMARK   95  A    between atoms: _223  and  _226
REMARK   96  A    between atoms: _226  and  _227
REMARK   97  A    between atoms: _230  and  _232
REMARK   98  A    between atoms: _232  and  _233
REMARK   99  A    between atoms: _232  and  _235
REMARK  100  A    between atoms: _235  and  _236
REMARK  101  A    between atoms: _239  and  _241
REMARK  102  A    between atoms: _241  and  _242
REMARK  103  A    between atoms: _244  and  _246
REMARK  104  A    between atoms: _246  and  _247
REMARK  105  A    between atoms: _246  and  _249
REMARK  106  A    between atoms: _249  and  _250
REMARK  107  A    between atoms: _250  and  _251
REMARK  108  A    between atoms: _251  and  _252
REMARK  109  A    between atoms: _261  and  _263
REMARK  110  A    between atoms: _263  and  _264
REMARK  111  A    between atoms: _263  and  _266
REMARK  112  A    between atoms: _266  and  _267
REMARK  113  A    between atoms: _272  and  _274
REMARK  114  A    between atoms: _274  and  _275
REMARK  115  A    between atoms: _274  and  _277
REMARK  116  A    between atoms: _277  and  _278
REMARK  117  A    between atoms: _278  and  _279
REMARK  118  A    between atoms: _279  and  _280
REMARK  119  A    between atoms: _289  and  _291
REMARK  120  A    between atoms: _291  and  _292
REMARK  121  A    between atoms: _291  and  _294
REMARK  122  A    between atoms: _294  and  _295
REMARK  123  A    between atoms: _298  and  _300
REMARK  124  A    between atoms: _300  and  _301
REMARK  125  A    between atoms: _300  and  _303
REMARK  126  A    between atoms: _303  and  _304
REMARK  127  A    between atoms: _307  and  _309
REMARK  128  A    between atoms: _309  and  _310
REMARK  129  A    between atoms: _309  and  _312
REMARK  130  A    between atoms: _312  and  _313
REMARK  131  A    between atoms: _316  and  _318
REMARK  132  A    between atoms: _318  and  _319
REMARK  133  A    between atoms: _318  and  _321
REMARK  134  A    between atoms: _321  and  _322
REMARK  135  A    between atoms: _325  and  _327
REMARK  136  A    between atoms: _327  and  _328
REMARK  137  A    between atoms: _330  and  _332
REMARK  138  A    between atoms: _332  and  _333
REMARK  139  A    between atoms: _336  and  _338
REMARK  140  A    between atoms: _338  and  _339
REMARK  141  A    between atoms: _338  and  _341
REMARK  142  A    between atoms: _341  and  _342
REMARK  143  A    between atoms: _345  and  _347
REMARK  144  A    between atoms: _347  and  _348
REMARK  145  A    between atoms: _347  and  _350
REMARK  146  A    between atoms: _350  and  _351
REMARK  147  A    between atoms: _354  and  _356
REMARK  148  A    between atoms: _356  and  _357
REMARK  149  A    between atoms: _356  and  _359
REMARK  150  A    between atoms: _359  and  _360
REMARK  151  A    between atoms: _363  and  _365
REMARK  152  A    between atoms: _365  and  _366
REMARK  153  A    between atoms: _365  and  _368
REMARK  154  A    between atoms: _371  and  _373
REMARK  155  A    between atoms: _373  and  _374
REMARK  156  A    between atoms: _373  and  _376
REMARK  157  A    between atoms: _376  and  _377
REMARK  158  A    between atoms: _377  and  _378
REMARK  159  A    between atoms: _378  and  _379
REMARK  160  A    between atoms: _379  and  _380
REMARK  161  A    between atoms: _384  and  _386
REMARK  162  A    between atoms: _386  and  _387
REMARK  163  A    between atoms: _386  and  _389
REMARK  164  A    between atoms: _389  and  _390
REMARK  165  A    between atoms: _390  and  _391
REMARK  166  A    between atoms: _393  and  _395
REMARK  167  A    between atoms: _395  and  _396
REMARK  168  A    between atoms: _395  and  _398
REMARK  169  A    between atoms: _398  and  _399
REMARK  170  A    between atoms: _402  and  _404
REMARK  171  A    between atoms: _404  and  _405
REMARK  172  A    between atoms: _407  and  _409
REMARK  173  A    between atoms: _409  and  _410
REMARK  174  A    between atoms: _412  and  _414
REMARK  175  A    between atoms: _414  and  _415
REMARK  176  A    between atoms: _414  and  _417
REMARK  177  A    between atoms: _417  and  _418
REMARK  178  A    between atoms: _421  and  _423
REMARK  179  A    between atoms: _423  and  _424
REMARK  180  A    between atoms: _426  and  _428
REMARK  181  A    between atoms: _428  and  _429
REMARK  182  A    between atoms: _431  and  _433
REMARK  183  A    between atoms: _433  and  _434
REMARK  184  A    between atoms: _433  and  _436
REMARK  185  A    between atoms: _436  and  _437
REMARK  186  A    between atoms: _443  and  _445
REMARK  187  A    between atoms: _445  and  _446
REMARK  188  A    between atoms: _445  and  _448
REMARK  189  A    between atoms: _448  and  _449
REMARK  190  A    between atoms: _452  and  _454
REMARK  191  A    between atoms: _454  and  _455
REMARK  192  A    between atoms: _454  and  _457
REMARK  193  A    between atoms: _457  and  _458
REMARK  194  A    between atoms: _461  and  _463
REMARK  195  A    between atoms: _463  and  _464
REMARK  196  A    between atoms: _463  and  _466
REMARK  197  A    between atoms: _466  and  _467
REMARK  198  A    between atoms: _471  and  _472
REMARK  199  A    between atoms: _477  and  _479
REMARK  200  A    between atoms: _479  and  _480
REMARK  201  A    between atoms: _479  and  _482
REMARK  202  A    between atoms: _485  and  _487
REMARK  203  A    between atoms: _487  and  _488
REMARK  204  A    between atoms: _487  and  _490
REMARK  205  A    between atoms: _490  and  _491
REMARK  206  A    between atoms: _496  and  _498
REMARK  207  A    between atoms: _498  and  _499
REMARK  208  A    between atoms: _498  and  _501
REMARK  209  A    between atoms: _501  and  _502
REMARK  210  A    between atoms: _505  and  _507
REMARK  211  A    between atoms: _507  and  _508
REMARK  212  A    between atoms: _507  and  _510
REMARK  213  A    between atoms: _510  and  _511
REMARK  214  A    between atoms: _514  and  _516
REMARK  215  A    between atoms: _516  and  _517
REMARK  216  A    between atoms: _519  and  _521
REMARK  217  A    between atoms: _521  and  _522
REMARK  218  A    between atoms: _521  and  _524
REMARK  219  A    between atoms: _524  and  _525
REMARK  220  A    between atoms: _525  and  _526
REMARK  221  A    between atoms: _526  and  _527
REMARK  222  A    between atoms: _536  and  _538
REMARK  223  A    between atoms: _538  and  _539
REMARK  224  A    between atoms: _538  and  _541
REMARK  225  A    between atoms: _541  and  _542
REMARK                            x       y       z     vdW  Elec       q    Type
REMARK                         _______ _______ _______ _____ _____    ______ ____
ROOT
ATOM      1  C   GLY A   5      16.483  18.371  13.915  0.00  0.00    +0.243 C 
ATOM      2  N   ILE A   6      17.229  19.467  13.959  0.00  0.00    -0.297 N 
ATOM      3  H   ILE A   6      17.417  19.922  14.875  0.00  0.00    +0.150 HD
ATOM      4  O   GLY A   5      16.280  17.745  12.873  0.00  0.00    -0.273 OA
ENDROOT
BRANCH   2   5
ATOM      5  CA  ILE A   6      17.787  20.041  12.746  0.00  0.00    +0.149 C 
BRANCH   5   6
ATOM      6  C   ILE A   6      18.815  19.136  12.053  0.00  0.00    +0.241 C 
ATOM      7  N   GLY A   7      19.589  18.394  12.843  0.00  0.00    -0.295 N 
ATOM      8  H   GLY A   7      19.470  18.444  13.875  0.00  0.00    +0.150 HD
ATOM      9  O   ILE A   6      18.873  19.086  10.818  0.00  0.00    -0.273 OA
BRANCH   7  10
ATOM     10  CA  GLY A   7      20.599  17.515  12.276  0.00  0.00    +0.176 C 
BRANCH  10  11
ATOM     11  C   GLY A   7      20.189  16.065  12.108  0.00  0.00    +0.243 C 
ATOM     12  N   GLY A   8      18.943  15.738  12.423  0.00  0.00    -0.295 N 
ATOM     13  H   GLY A   8      18.285  16.463  12.772  0.00  0.00    +0.150 HD
ATOM     14  O   GLY A   7      21.004  15.238  11.710  0.00  0.00    -0.273 OA
BRANCH  12  15
ATOM     15  CA  GLY A   8      18.503  14.362  12.278  0.00  0.00    +0.176 C 
BRANCH  15  16
ATOM     16  C   GLY A   8      17.786  13.842  13.504  0.00  0.00    +0.243 C 
ATOM     17  O   GLY A   8      17.374  14.609  14.360  0.00  0.00    -0.273 OA
ATOM     18  N   PHE A   9      17.676  12.525  13.613  0.00  0.00    -0.297 N 
ATOM     19  H   PHE A   9      18.095  11.916  12.881  0.00  0.00    +0.150 HD
BRANCH  18  20
ATOM     20  CA  PHE A   9      16.980  11.913  14.738  0.00  0.00    +0.153 C 
BRANCH  20  21
ATOM     21  C   PHE A   9      17.894  11.353  15.815  0.00  0.00    +0.241 C 
ATOM     22  N   ILE A  10      17.387  11.340  17.044  0.00  0.00    -0.298 N 
ATOM     23  H   ILE A  10      16.437  11.734  17.199  0.00  0.00    +0.150 HD
ATOM     24  O   PHE A   9      19.038  10.983  15.548  0.00  0.00    -0.273 OA
BRANCH  22  25
ATOM     25  CA  ILE A  10      18.115  10.793  18.181  0.00  0.00    +0.137 C 
BRANCH  25  26
ATOM     26  C   ILE A  10      17.136  10.005  19.058  0.00  0.00    +0.227 C 
ATOM     27  O   ILE A  10      15.916  10.206  18.985  0.00  0.00    -0.286 OA
ENDBRANCH  25  26
BRANCH  25  28
ATOM     28  CB  ILE A  10      18.802  11.888  19.056  0.00  0.00    +0.026 C 
ATOM     29  CG2 ILE A  10      19.770  12.720  18.220  0.00  0.00    +0.002 C 
BRANCH  28  30
ATOM     30  CG1 ILE A  10      17.761  12.767  19.752  0.00  0.00    +0.002 C 
ATOM     31  CD1 ILE A  10      18.330  13.624  20.862  0.00  0.00    +0.000 C 
ENDBRANCH  28  30
ENDBRANCH  25  28
ENDBRANCH  22  25
ENDBRANCH  20  21
BRANCH  20  32
ATOM     32  CB  PHE A   9      16.043  10.809  14.233  0.00  0.00    +0.055 C 
BRANCH  32  33
ATOM     33  CG  PHE A   9      14.921  11.313  13.368  0.00  0.00    -0.020 A 
ATOM     34  CD2 PHE A   9      13.641  11.468  13.891  0.00  0.00    -0.004 A 
ATOM     35  CE2 PHE A   9      12.604  11.967  13.108  0.00  0.00    -0.000 A 
ATOM     36  CZ  PHE A   9      12.846  12.315  11.780  0.00  0.00    -0.000 A 
ATOM     37  CE1 PHE A   9      14.124  12.159  11.246  0.00  0.00    -0.000 A 
ATOM     38  CD1 PHE A   9      15.150  11.660  12.039  0.00  0.00    -0.004 A 
ENDBRANCH  32  33
ENDBRANCH  20  32
ENDBRANCH  18  20
ENDBRANCH  15  16
ENDBRANCH  12  15
ENDBRANCH  10  11
ENDBRANCH   7  10
ENDBRANCH   5   6
BRANCH   5  39
ATOM     39  CB  ILE A   6      18.378  21.451  13.013  0.00  0.00    +0.027 C 
ATOM     40  CG2 ILE A   6      19.834  21.360  13.468  0.00  0.00    +0.002 C 
BRANCH  39  41
ATOM     41  CG1 ILE A   6      18.247  22.308  11.755  0.00  0.00    +0.002 C 
ATOM     42  CD1 ILE A   6      18.531  23.766  11.990  0.00  0.00    +0.000 C 
ENDBRANCH  39  41
ENDBRANCH   5  39
ENDBRANCH   2   5
BRANCH   1  43
ATOM     43  CA  GLY A   5      15.940  17.873  15.240  0.00  0.00    +0.176 C 
BRANCH  43  46
ATOM     44  C   GLY A   4      14.224  16.180  15.197  0.00  0.00    +0.243 C 
ATOM     45  O   GLY A   4      13.341  17.007  15.423  0.00  0.00    -0.273 OA
ATOM     46  N   GLY A   5      15.507  16.496  15.118  0.00  0.00    -0.295 N 
ATOM     47  H   GLY A   5      16.212  15.747  14.967  0.00  0.00    +0.150 HD
BRANCH  44  48
ATOM     48  CA  GLY A   4      13.901  14.711  15.027  0.00  0.00    +0.176 C 
BRANCH  48  51
ATOM     49  C   ILE A   3      13.668  13.364  17.024  0.00  0.00    +0.241 C 
ATOM     50  O   ILE A   3      14.842  12.979  16.971  0.00  0.00    -0.273 OA
ATOM     51  N   GLY A   4      13.121  14.173  16.122  0.00  0.00    -0.295 N 
ATOM     52  H   GLY A   4      12.115  14.424  16.204  0.00  0.00    +0.150 HD
BRANCH  49  53
ATOM     53  CA  ILE A   3      12.731  12.872  18.118  0.00  0.00    +0.149 C 
BRANCH  53  55
ATOM     54  C   MET A   2      12.105  10.546  18.357  0.00  0.00    +0.241 C 
ATOM     55  N   ILE A   3      13.044  11.481  18.425  0.00  0.00    -0.297 N 
ATOM     56  H   ILE A   3      14.012  11.219  18.700  0.00  0.00    +0.150 HD
ATOM     57  O   MET A   2      10.928  10.796  18.102  0.00  0.00    -0.273 OA
BRANCH  54  58
ATOM     58  CA  MET A   2      12.532   9.122  18.661  0.00  0.00    +0.149 C 
BRANCH  58  61
ATOM     59  C   LYS A   1      12.125   8.429  20.967  0.00  0.00    +0.238 C 
ATOM     60  O   LYS A   1      13.303   8.559  21.293  0.00  0.00    -0.274 OA
ATOM     61  N   MET A   2      11.682   8.639  19.736  0.00  0.00    -0.297 N 
ATOM     62  H   MET A   2      10.680   8.450  19.530  0.00  0.00    +0.150 HD
BRANCH  59  63
ATOM     63  CA  LYS A   1      11.077   7.936  21.961  0.00  0.00    +0.145 C 
BRANCH  63  64
ATOM     64  N   LYS A   1      11.643   6.927  22.846  0.00  0.00    -0.238 NA
ATOM     65  H   LYS A   1      12.653   6.974  23.089  0.00  0.00    +0.142 HD
ENDBRANCH  63  64
BRANCH  63  66
ATOM     66  CB  LYS A   1      10.480   9.115  22.739  0.00  0.00    +0.026 C 
BRANCH  66  67
ATOM     67  CG  LYS A   1       9.676  10.072  21.846  0.00  0.00    -0.000 C 
BRANCH  67  68
ATOM     68  CD  LYS A   1       9.104  11.252  22.616  0.00  0.00    -0.024 C 
BRANCH  68  69
ATOM     69  CE  LYS A   1       8.408  12.251  21.696  0.00  0.00    -0.086 C 
BRANCH  69  70
ATOM     70  NZ  LYS A   1       7.119  11.762  21.158  0.00  0.00    +0.380 N 
ATOM     71  HZ1 LYS A   1       6.470  11.560  21.945  0.00  0.00    -0.089 HD
ATOM     72  HZ2 LYS A   1       7.281  10.894  20.609  0.00  0.00    -0.089 HD
ATOM     73  HZ3 LYS A   1       6.703  12.490  20.543  0.00  0.00    -0.089 HD
ENDBRANCH  69  70
ENDBRANCH  68  69
ENDBRANCH  67  68
ENDBRANCH  66  67
ENDBRANCH  63  66
ENDBRANCH  59  63
ENDBRANCH  58  61
BRANCH  58  74
ATOM     74  CB  MET A   2      12.322   8.273  17.404  0.00  0.00    +0.041 C 
BRANCH  74  75
ATOM     75  CG  MET A   2      13.241   7.076  17.278  0.00  0.00    +0.060 C 
BRANCH  75  76
ATOM     76  SD  MET A   2      14.892   7.555  16.724  0.00  0.00    -0.139 S 
ATOM     77  CE  MET A   2      14.624   7.598  14.933  0.00  0.00    +0.069 C 
ENDBRANCH  75  76
ENDBRANCH  74  75
ENDBRANCH  58  74
ENDBRANCH  54  58
ENDBRANCH  53  55
BRANCH  53  78
ATOM     78  CB  ILE A   3      12.809  13.810  19.361  0.00  0.00    +0.027 C 
ATOM     79  CG2 ILE A   3      11.786  13.384  20.415  0.00  0.00    +0.002 C 
BRANCH  78  80
ATOM     80  CG1 ILE A   3      14.214  13.813  19.960  0.00  0.00    +0.002 C 
ATOM     81  CD1 ILE A   3      14.412  14.873  21.034  0.00  0.00    +0.000 C 
ENDBRANCH  78  80
ENDBRANCH  53  78
ENDBRANCH  49  53
ENDBRANCH  48  51
ENDBRANCH  44  48
ENDBRANCH  43  46
ENDBRANCH   1  43
TORSDOF 36
REMARK  Name = ../refined-set-2016/2i4u/2i4u_pocket.pdb
REMARK  225 active torsions:
REMARK  status: ('A' for Active; 'I' for Inactive)
REMARK    1  A    between atoms: _1  and  _3
REMARK    2  A    between atoms: _3  and  _4
REMARK    3  A    between atoms: _3  and  _6
REMARK    4  A    between atoms: _6  and  _7
REMARK    5  A    between atoms: _7  and  _8
REMARK    6  A    between atoms: _8  and  _9
REMARK    7  A    between atoms: _18  and  _20
REMARK    8  A    between atoms: _20  and  _21
REMARK    9  A    between atoms: _20  and  _23
REMARK   10  A    between atoms: _23  and  _24
REMARK   11  A    between atoms: _27  and  _29
REMARK   12  A    between atoms: _29  and  _30
REMARK   13  A    between atoms: _29  and  _32
REMARK   14  A    between atoms: _32  and  _33
REMARK   15  A    between atoms: _36  and  _38
REMARK   16  A    between atoms: _38  and  _39
REMARK   17  A    between atoms: _38  and  _41
REMARK   18  A    between atoms: _41  and  _42
REMARK   19  A    between atoms: _45  and  _47
REMARK   20  A    between atoms: _47  and  _48
REMARK   21  A    between atoms: _47  and  _50
REMARK   22  A    between atoms: _50  and  _51
REMARK   23  A    between atoms: _54  and  _56
REMARK   24  A    between atoms: _56  and  _57
REMARK   25  A    between atoms: _59  and  _61
REMARK   26  A    between atoms: _61  and  _62
REMARK   27  A    between atoms: _65  and  _67
REMARK   28  A    between atoms: _67  and  _68
REMARK   29  A    between atoms: _67  and  _70
REMARK   30  A    between atoms: _70  and  _71
REMARK   31  A    between atoms: _74  and  _76
REMARK   32  A    between atoms: _76  and  _77
REMARK   33  A    between atoms: _76  and  _79
REMARK   34  A    between atoms: _79  and  _80
REMARK   35  A    between atoms: _83  and  _85
REMARK   36  A    between atoms: _85  and  _86
REMARK   37  A    between atoms: _85  and  _88
REMARK   38  A    between atoms: _88  and  _89
REMARK   39  A    between atoms: _92  and  _94
REMARK   40  A    between atoms: _94  and  _95
REMARK   41  A    between atoms: _94  and  _97
REMARK   42  A    between atoms: _100  and  _102
REMARK   43  A    between atoms: _102  and  _103
REMARK   44  A    between atoms: _102  and  _105
REMARK   45  A    between atoms: _105  and  _106
REMARK   46  A    between atoms: _106  and  _107
REMARK   47  A    between atoms: _107  and  _108
REMARK   48  A    between atoms: _108  and  _109
REMARK   49  A    between atoms: _113  and  _115
REMARK   50  A    between atoms: _115  and  _116
REMARK   51  A    between atoms: _115  and  _118
REMARK   52  A    between atoms: _118  and  _119
REMARK   53  A    between atoms: _119  and  _120
REMARK   54  A    between atoms: _122  and  _124
REMARK   55  A    between atoms: _124  and  _125
REMARK   56  A    between atoms: _124  and  _127
REMARK   57  A    between atoms: _127  and  _128
REMARK   58  A    between atoms: _131  and  _133
REMARK   59  A    between atoms: _133  and  _134
REMARK   60  A    between atoms: _136  and  _138
REMARK   61  A    between atoms: _138  and  _139
REMARK   62  A    between atoms: _141  and  _143
REMARK   63  A    between atoms: _143  and  _144
REMARK   64  A    between atoms: _143  and  _146
REMARK   65  A    between atoms: _146  and  _147
REMARK   66  A    between atoms: _150  and  _152
REMARK   67  A    between atoms: _152  and  _153
REMARK   68  A    between atoms: _155  and  _157
REMARK   69  A    between atoms: _157  and  _158
REMARK   70  A    between atoms: _160  and  _162
REMARK   71  A    between atoms: _162  and  _163
REMARK   72  A    between atoms: _162  and  _165
REMARK   73  A    between atoms: _165  and  _166
REMARK   74  A    between atoms: _169  and  _171
REMARK   75  A    between atoms: _171  and  _172
REMARK   76  A    between atoms: _171  and  _174
REMARK   77  A    between atoms: _177  and  _179
REMARK   78  A    between atoms: _179  and  _180
REMARK   79  A    between atoms: _179  and  _182
REMARK   80  A    between atoms: _182  and  _183
REMARK   81  A    between atoms: _186  and  _188
REMARK   82  A    between atoms: _188  and  _189
REMARK   83  A    between atoms: _188  and  _191
REMARK   84  A    between atoms: _191  and  _192
REMARK   85  A    between atoms: _196  and  _197
REMARK   86  A    between atoms: _202  and  _204
REMARK   87  A    between atoms: _204  and  _205
REMARK   88  A    between atoms: _204  and  _207
REMARK   89  A    between atoms: _210  and  _212
REMARK   90  A    between atoms: _212  and  _213
REMARK   91  A    between atoms: _212  and  _215
REMARK   92  A    between atoms: _215  and  _216
REMARK   93  A    between atoms: _221  and  _223
REMARK   94  A    between atoms: _223  and  _224
REMARK   95  A    between atoms: _223  and  _226
REMARK   96  A    between atoms: _226  and  _227
REMARK   97  A    between atoms: _230  and  _232
REMARK   98  A    between atoms: _232  and  _233
REMARK   99  A    between atoms: _232  and  _235
REMARK  100  A    between atoms: _235  and  _236
REMARK  101  A    between atoms: _239  and  _241
REMARK  102  A    between atoms: _241  and  _242
REMARK  103  A    between atoms: _244  and  _246
REMARK  104  A    between atoms: _246  and  _247
REMARK  105  A    between atoms: _246  and  _249
REMARK  106  A    between atoms: _249  and  _250
REMARK  107  A    between atoms: _250  and  _251
REMARK  108  A    between atoms: _251  and  _252
REMARK  109  A    between atoms: _261  and  _263
REMARK  110  A    between atoms: _263  and  _264
REMARK  111  A    between atoms: _263  and  _266
REMARK  112  A    between atoms: _266  and  _267
REMARK  113  A    between atoms: _272  and  _274
REMARK  114  A    between atoms: _274  and  _275
REMARK  115  A    between atoms: _274  and  _277
REMARK  116  A    between atoms: _277  and  _278
REMARK  117  A    between atoms: _278  and  _279
REMARK  118  A    between atoms: _279  and  _280
REMARK  119  A    between atoms: _289  and  _291
REMARK  120  A    between atoms: _291  and  _292
REMARK  121  A    between atoms: _291  and  _294
REMARK  122  A    between atoms: _294  and  _295
REMARK  123  A    between atoms: _298  and  _300
REMARK  124  A    between atoms: _300  and  _301
REMARK  125  A    between atoms: _300  and  _303
REMARK  126  A    between atoms: _303  and  _304
REMARK  127  A    between atoms: _307  and  _309
REMARK  128  A    between atoms: _309  and  _310
REMARK  129  A    between atoms: _309  and  _312
REMARK  130  A    between atoms: _312  and  _313
REMARK  131  A    between atoms: _316  and  _318
REMARK  132  A    between atoms: _318  and  _319
REMARK  133  A    between atoms: _318  and  _321
REMARK  134  A    between atoms: _321  and  _322
REMARK  135  A    between atoms: _325  and  _327
REMARK  136  A    between atoms: _327  and  _328
REMARK  137  A    between atoms: _330  and  _332
REMARK  138  A    between atoms: _332  and  _333
REMARK  139  A    between atoms: _336  and  _338
REMARK  140  A    between atoms: _338  and  _339
REMARK  141  A    between atoms: _338  and  _341
REMARK  142  A    between atoms: _341  and  _342
REMARK  143  A    between atoms: _345  and  _347
REMARK  144  A    between atoms: _347  and  _348
REMARK  145  A    between atoms: _347  and  _350
REMARK  146  A    between atoms: _350  and  _351
REMARK  147  A    between atoms: _354  and  _356
REMARK  148  A    between atoms: _356  and  _357
REMARK  149  A    between atoms: _356  and  _359
REMARK  150  A    between atoms: _359  and  _360
REMARK  151  A    between atoms: _363  and  _365
REMARK  152  A    between atoms: _365  and  _366
REMARK  153  A    between atoms: _365  and  _368
REMARK  154  A    between atoms: _371  and  _373
REMARK  155  A    between atoms: _373  and  _374
REMARK  156  A    between atoms: _373  and  _376
REMARK  157  A    between atoms: _376  and  _377
REMARK  158  A    between atoms: _377  and  _378
REMARK  159  A    between atoms: _378  and  _379
REMARK  160  A    between atoms: _379  and  _380
REMARK  161  A    between atoms: _384  and  _386
REMARK  162  A    between atoms: _386  and  _387
REMARK  163  A    between atoms: _386  and  _389
REMARK  164  A    between atoms: _389  and  _390
REMARK  165  A    between atoms: _390  and  _391
REMARK  166  A    between atoms: _393  and  _395
REMARK  167  A    between atoms: _395  and  _396
REMARK  168  A    between atoms: _395  and  _398
REMARK  169  A    between atoms: _398  and  _399
REMARK  170  A    between atoms: _402  and  _404
REMARK  171  A    between atoms: _404  and  _405
REMARK  172  A    between atoms: _407  and  _409
REMARK  173  A    between atoms: _409  and  _410
REMARK  174  A    between atoms: _412  and  _414
REMARK  175  A    between atoms: _414  and  _415
REMARK  176  A    between atoms: _414  and  _417
REMARK  177  A    between atoms: _417  and  _418
REMARK  178  A    between atoms: _421  and  _423
REMARK  179  A    between atoms: _423  and  _424
REMARK  180  A    between atoms: _426  and  _428
REMARK  181  A    between atoms: _428  and  _429
REMARK  182  A    between atoms: _431  and  _433
REMARK  183  A    between atoms: _433  and  _434
REMARK  184  A    between atoms: _433  and  _436
REMARK  185  A    between atoms: _436  and  _437
REMARK  186  A    between atoms: _443  and  _445
REMARK  187  A    between atoms: _445  and  _446
REMARK  188  A    between atoms: _445  and  _448
REMARK  189  A    between atoms: _448  and  _449
REMARK  190  A    between atoms: _452  and  _454
REMARK  191  A    between atoms: _454  and  _455
REMARK  192  A    between atoms: _454  and  _457
REMARK  193  A    between atoms: _457  and  _458
REMARK  194  A    between atoms: _461  and  _463
REMARK  195  A    between atoms: _463  and  _464
REMARK  196  A    between atoms: _463  and  _466
REMARK  197  A    between atoms: _466  and  _467
REMARK  198  A    between atoms: _471  and  _472
REMARK  199  A    between atoms: _477  and  _479
REMARK  200  A    between atoms: _479  and  _480
REMARK  201  A    between atoms: _479  and  _482
REMARK  202  A    between atoms: _485  and  _487
REMARK  203  A    between atoms: _487  and  _488
REMARK  204  A    between atoms: _487  and  _490
REMARK  205  A    between atoms: _490  and  _491
REMARK  206  A    between atoms: _496  and  _498
REMARK  207  A    between atoms: _498  and  _499
REMARK  208  A    between atoms: _498  and  _501
REMARK  209  A    between atoms: _501  and  _502
REMARK  210  A    between atoms: _505  and  _507
REMARK  211  A    between atoms: _507  and  _508
REMARK  212  A    between atoms: _507  and  _510
REMARK  213  A    between atoms: _510  and  _511
REMARK  214  A    between atoms: _514  and  _516
REMARK  215  A    between atoms: _516  and  _517
REMARK  216  A    between atoms: _519  and  _521
REMARK  217  A    between atoms: _521  and  _522
REMARK  218  A    between atoms: _521  and  _524
REMARK  219  A    between atoms: _524  and  _525
REMARK  220  A    between atoms: _525  and  _526
REMARK  221  A    between atoms: _526  and  _527
REMARK  222  A    between atoms: _536  and  _538
REMARK  223  A    between atoms: _538  and  _539
REMARK  224  A    between atoms: _538  and  _541
REMARK  225  A    between atoms: _541  and  _542
REMARK                            x       y       z     vdW  Elec       q    Type
REMARK                         _______ _______ _______ _____ _____    ______ ____
ROOT
ATOM      1  CA  LEU A   1      12.930  13.463  27.644  0.00  0.00    +0.133 C 
ENDROOT
BRANCH   1   2
ATOM      2  N   LEU A   1      12.147  14.384  28.455  0.00  0.00    -0.239 NA
ATOM      3  H   LEU A   1      12.094  15.385  28.178  0.00  0.00    +0.142 HD
ENDBRANCH   1   2
BRANCH   1   4
ATOM      4  C   LEU A   1      14.400  13.693  27.961  0.00  0.00    +0.224 C 
ATOM      5  O   LEU A   1      14.835  14.836  28.068  0.00  0.00    -0.287 OA
ENDBRANCH   1   4
BRANCH   1   6
ATOM      6  CB  LEU A   1      12.680  13.717  26.155  0.00  0.00    +0.025 C 
BRANCH   6   7
ATOM      7  CG  LEU A   1      11.236  13.797  25.658  0.00  0.00    +0.002 C 
ATOM      8  CD2 LEU A   1      10.501  12.500  25.937  0.00  0.00    +0.000 C 
ATOM      9  CD1 LEU A   1      11.242  14.104  24.173  0.00  0.00    +0.000 C 
ENDBRANCH   6   7
ENDBRANCH   1   6
TORSDOF 4
REMARK  Name = ../refined-set-2016/2i4u/2i4u_pocket.pdb
REMARK  225 active torsions:
REMARK  status: ('A' for Active; 'I' for Inactive)
REMARK    1  A    between atoms: _1  and  _3
REMARK    2  A    between atoms: _3  and  _4
REMARK    3  A    between atoms: _3  and  _6
REMARK    4  A    between atoms: _6  and  _7
REMARK    5  A    between atoms: _7  and  _8
REMARK    6  A    between atoms: _8  and  _9
REMARK    7  A    between atoms: _18  and  _20
REMARK    8  A    between atoms: _20  and  _21
REMARK    9  A    between atoms: _20  and  _23
REMARK   10  A    between atoms: _23  and  _24
REMARK   11  A    between atoms: _27  and  _29
REMARK   12  A    between atoms: _29  and  _30
REMARK   13  A    between atoms: _29  and  _32
REMARK   14  A    between atoms: _32  and  _33
REMARK   15  A    between atoms: _36  and  _38
REMARK   16  A    between atoms: _38  and  _39
REMARK   17  A    between atoms: _38  and  _41
REMARK   18  A    between atoms: _41  and  _42
REMARK   19  A    between atoms: _45  and  _47
REMARK   20  A    between atoms: _47  and  _48
REMARK   21  A    between atoms: _47  and  _50
REMARK   22  A    between atoms: _50  and  _51
REMARK   23  A    between atoms: _54  and  _56
REMARK   24  A    between atoms: _56  and  _57
REMARK   25  A    between atoms: _59  and  _61
REMARK   26  A    between atoms: _61  and  _62
REMARK   27  A    between atoms: _65  and  _67
REMARK   28  A    between atoms: _67  and  _68
REMARK   29  A    between atoms: _67  and  _70
REMARK   30  A    between atoms: _70  and  _71
REMARK   31  A    between atoms: _74  and  _76
REMARK   32  A    between atoms: _76  and  _77
REMARK   33  A    between atoms: _76  and  _79
REMARK   34  A    between atoms: _79  and  _80
REMARK   35  A    between atoms: _83  and  _85
REMARK   36  A    between atoms: _85  and  _86
REMARK   37  A    between atoms: _85  and  _88
REMARK   38  A    between atoms: _88  and  _89
REMARK   39  A    between atoms: _92  and  _94
REMARK   40  A    between atoms: _94  and  _95
REMARK   41  A    between atoms: _94  and  _97
REMARK   42  A    between atoms: _100  and  _102
REMARK   43  A    between atoms: _102  and  _103
REMARK   44  A    between atoms: _102  and  _105
REMARK   45  A    between atoms: _105  and  _106
REMARK   46  A    between atoms: _106  and  _107
REMARK   47  A    between atoms: _107  and  _108
REMARK   48  A    between atoms: _108  and  _109
REMARK   49  A    between atoms: _113  and  _115
REMARK   50  A    between atoms: _115  and  _116
REMARK   51  A    between atoms: _115  and  _118
REMARK   52  A    between atoms: _118  and  _119
REMARK   53  A    between atoms: _119  and  _120
REMARK   54  A    between atoms: _122  and  _124
REMARK   55  A    between atoms: _124  and  _125
REMARK   56  A    between atoms: _124  and  _127
REMARK   57  A    between atoms: _127  and  _128
REMARK   58  A    between atoms: _131  and  _133
REMARK   59  A    between atoms: _133  and  _134
REMARK   60  A    between atoms: _136  and  _138
REMARK   61  A    between atoms: _138  and  _139
REMARK   62  A    between atoms: _141  and  _143
REMARK   63  A    between atoms: _143  and  _144
REMARK   64  A    between atoms: _143  and  _146
REMARK   65  A    between atoms: _146  and  _147
REMARK   66  A    between atoms: _150  and  _152
REMARK   67  A    between atoms: _152  and  _153
REMARK   68  A    between atoms: _155  and  _157
REMARK   69  A    between atoms: _157  and  _158
REMARK   70  A    between atoms: _160  and  _162
REMARK   71  A    between atoms: _162  and  _163
REMARK   72  A    between atoms: _162  and  _165
REMARK   73  A    between atoms: _165  and  _166
REMARK   74  A    between atoms: _169  and  _171
REMARK   75  A    between atoms: _171  and  _172
REMARK   76  A    between atoms: _171  and  _174
REMARK   77  A    between atoms: _177  and  _179
REMARK   78  A    between atoms: _179  and  _180
REMARK   79  A    between atoms: _179  and  _182
REMARK   80  A    between atoms: _182  and  _183
REMARK   81  A    between atoms: _186  and  _188
REMARK   82  A    between atoms: _188  and  _189
REMARK   83  A    between atoms: _188  and  _191
REMARK   84  A    between atoms: _191  and  _192
REMARK   85  A    between atoms: _196  and  _197
REMARK   86  A    between atoms: _202  and  _204
REMARK   87  A    between atoms: _204  and  _205
REMARK   88  A    between atoms: _204  and  _207
REMARK   89  A    between atoms: _210  and  _212
REMARK   90  A    between atoms: _212  and  _213
REMARK   91  A    between atoms: _212  and  _215
REMARK   92  A    between atoms: _215  and  _216
REMARK   93  A    between atoms: _221  and  _223
REMARK   94  A    between atoms: _223  and  _224
REMARK   95  A    between atoms: _223  and  _226
REMARK   96  A    between atoms: _226  and  _227
REMARK   97  A    between atoms: _230  and  _232
REMARK   98  A    between atoms: _232  and  _233
REMARK   99  A    between atoms: _232  and  _235
REMARK  100  A    between atoms: _235  and  _236
REMARK  101  A    between atoms: _239  and  _241
REMARK  102  A    between atoms: _241  and  _242
REMARK  103  A    between atoms: _244  and  _246
REMARK  104  A    between atoms: _246  and  _247
REMARK  105  A    between atoms: _246  and  _249
REMARK  106  A    between atoms: _249  and  _250
REMARK  107  A    between atoms: _250  and  _251
REMARK  108  A    between atoms: _251  and  _252
REMARK  109  A    between atoms: _261  and  _263
REMARK  110  A    between atoms: _263  and  _264
REMARK  111  A    between atoms: _263  and  _266
REMARK  112  A    between atoms: _266  and  _267
REMARK  113  A    between atoms: _272  and  _274
REMARK  114  A    between atoms: _274  and  _275
REMARK  115  A    between atoms: _274  and  _277
REMARK  116  A    between atoms: _277  and  _278
REMARK  117  A    between atoms: _278  and  _279
REMARK  118  A    between atoms: _279  and  _280
REMARK  119  A    between atoms: _289  and  _291
REMARK  120  A    between atoms: _291  and  _292
REMARK  121  A    between atoms: _291  and  _294
REMARK  122  A    between atoms: _294  and  _295
REMARK  123  A    between atoms: _298  and  _300
REMARK  124  A    between atoms: _300  and  _301
REMARK  125  A    between atoms: _300  and  _303
REMARK  126  A    between atoms: _303  and  _304
REMARK  127  A    between atoms: _307  and  _309
REMARK  128  A    between atoms: _309  and  _310
REMARK  129  A    between atoms: _309  and  _312
REMARK  130  A    between atoms: _312  and  _313
REMARK  131  A    between atoms: _316  and  _318
REMARK  132  A    between atoms: _318  and  _319
REMARK  133  A    between atoms: _318  and  _321
REMARK  134  A    between atoms: _321  and  _322
REMARK  135  A    between atoms: _325  and  _327
REMARK  136  A    between atoms: _327  and  _328
REMARK  137  A    between atoms: _330  and  _332
REMARK  138  A    between atoms: _332  and  _333
REMARK  139  A    between atoms: _336  and  _338
REMARK  140  A    between atoms: _338  and  _339
REMARK  141  A    between atoms: _338  and  _341
REMARK  142  A    between atoms: _341  and  _342
REMARK  143  A    between atoms: _345  and  _347
REMARK  144  A    between atoms: _347  and  _348
REMARK  145  A    between atoms: _347  and  _350
REMARK  146  A    between atoms: _350  and  _351
REMARK  147  A    between atoms: _354  and  _356
REMARK  148  A    between atoms: _356  and  _357
REMARK  149  A    between atoms: _356  and  _359
REMARK  150  A    between atoms: _359  and  _360
REMARK  151  A    between atoms: _363  and  _365
REMARK  152  A    between atoms: _365  and  _366
REMARK  153  A    between atoms: _365  and  _368
REMARK  154  A    between atoms: _371  and  _373
REMARK  155  A    between atoms: _373  and  _374
REMARK  156  A    between atoms: _373  and  _376
REMARK  157  A    between atoms: _376  and  _377
REMARK  158  A    between atoms: _377  and  _378
REMARK  159  A    between atoms: _378  and  _379
REMARK  160  A    between atoms: _379  and  _380
REMARK  161  A    between atoms: _384  and  _386
REMARK  162  A    between atoms: _386  and  _387
REMARK  163  A    between atoms: _386  and  _389
REMARK  164  A    between atoms: _389  and  _390
REMARK  165  A    between atoms: _390  and  _391
REMARK  166  A    between atoms: _393  and  _395
REMARK  167  A    between atoms: _395  and  _396
REMARK  168  A    between atoms: _395  and  _398
REMARK  169  A    between atoms: _398  and  _399
REMARK  170  A    between atoms: _402  and  _404
REMARK  171  A    between atoms: _404  and  _405
REMARK  172  A    between atoms: _407  and  _409
REMARK  173  A    between atoms: _409  and  _410
REMARK  174  A    between atoms: _412  and  _414
REMARK  175  A    between atoms: _414  and  _415
REMARK  176  A    between atoms: _414  and  _417
REMARK  177  A    between atoms: _417  and  _418
REMARK  178  A    between atoms: _421  and  _423
REMARK  179  A    between atoms: _423  and  _424
REMARK  180  A    between atoms: _426  and  _428
REMARK  181  A    between atoms: _428  and  _429
REMARK  182  A    between atoms: _431  and  _433
REMARK  183  A    between atoms: _433  and  _434
REMARK  184  A    between atoms: _433  and  _436
REMARK  185  A    between atoms: _436  and  _437
REMARK  186  A    between atoms: _443  and  _445
REMARK  187  A    between atoms: _445  and  _446
REMARK  188  A    between atoms: _445  and  _448
REMARK  189  A    between atoms: _448  and  _449
REMARK  190  A    between atoms: _452  and  _454
REMARK  191  A    between atoms: _454  and  _455
REMARK  192  A    between atoms: _454  and  _457
REMARK  193  A    between atoms: _457  and  _458
REMARK  194  A    between atoms: _461  and  _463
REMARK  195  A    between atoms: _463  and  _464
REMARK  196  A    between atoms: _463  and  _466
REMARK  197  A    between atoms: _466  and  _467
REMARK  198  A    between atoms: _471  and  _472
REMARK  199  A    between atoms: _477  and  _479
REMARK  200  A    between atoms: _479  and  _480
REMARK  201  A    between atoms: _479  and  _482
REMARK  202  A    between atoms: _485  and  _487
REMARK  203  A    between atoms: _487  and  _488
REMARK  204  A    between atoms: _487  and  _490
REMARK  205  A    between atoms: _490  and  _491
REMARK  206  A    between atoms: _496  and  _498
REMARK  207  A    between atoms: _498  and  _499
REMARK  208  A    between atoms: _498  and  _501
REMARK  209  A    between atoms: _501  and  _502
REMARK  210  A    between atoms: _505  and  _507
REMARK  211  A    between atoms: _507  and  _508
REMARK  212  A    between atoms: _507  and  _510
REMARK  213  A    between atoms: _510  and  _511
REMARK  214  A    between atoms: _514  and  _516
REMARK  215  A    between atoms: _516  and  _517
REMARK  216  A    between atoms: _519  and  _521
REMARK  217  A    between atoms: _521  and  _522
REMARK  218  A    between atoms: _521  and  _524
REMARK  219  A    between atoms: _524  and  _525
REMARK  220  A    between atoms: _525  and  _526
REMARK  221  A    between atoms: _526  and  _527
REMARK  222  A    between atoms: _536  and  _538
REMARK  223  A    between atoms: _538  and  _539
REMARK  224  A    between atoms: _538  and  _541
REMARK  225  A    between atoms: _541  and  _542
REMARK                            x       y       z     vdW  Elec       q    Type
REMARK                         _______ _______ _______ _____ _____    ______ ____
ROOT
ATOM      1  C   ILE A   5      14.042  22.538  26.813  0.00  0.00    +0.241 C 
ATOM      2  N   ILE A   6      13.328  23.622  27.100  0.00  0.00    -0.297 N 
ATOM      3  H   ILE A   6      13.745  24.558  26.922  0.00  0.00    +0.150 HD
ATOM      4  O   ILE A   5      13.664  21.389  27.064  0.00  0.00    -0.273 OA
ENDROOT
BRANCH   1   5
ATOM      5  CA  ILE A   5      15.418  22.799  26.215  0.00  0.00    +0.149 C 
BRANCH   5   8
ATOM      6  C   ASN A   4      17.526  22.574  27.386  0.00  0.00    +0.241 C 
ATOM      7  O   ASN A   4      17.728  23.784  27.309  0.00  0.00    -0.273 OA
ATOM      8  N   ILE A   5      16.450  21.998  26.863  0.00  0.00    -0.297 N 
ATOM      9  H   ILE A   5      16.342  20.965  26.916  0.00  0.00    +0.150 HD
BRANCH   6  10
ATOM     10  CA  ASN A   4      18.549  21.664  28.065  0.00  0.00    +0.158 C 
BRANCH  10  12
ATOM     11  C   VAL A   3      20.128  21.768  26.209  0.00  0.00    +0.241 C 
ATOM     12  N   ASN A   4      19.860  21.982  27.496  0.00  0.00    -0.297 N 
ATOM     13  H   ASN A   4      20.597  22.383  28.110  0.00  0.00    +0.150 HD
ATOM     14  O   VAL A   3      19.337  21.210  25.447  0.00  0.00    -0.273 OA
BRANCH  11  15
ATOM     15  CA  VAL A   3      21.517  22.173  25.711  0.00  0.00    +0.149 C 
BRANCH  15  18
ATOM     16  C   PRO A   2      23.091  21.271  24.064  0.00  0.00    +0.241 C 
ATOM     17  O   PRO A   2      24.062  21.757  24.641  0.00  0.00    -0.273 OA
ATOM     18  N   VAL A   3      21.842  21.407  24.508  0.00  0.00    -0.297 N 
ATOM     19  H   VAL A   3      21.070  20.952  23.980  0.00  0.00    +0.150 HD
BRANCH  16  23
ATOM     20  C   THR A   1      22.007  18.481  23.521  0.00  0.00    +0.244 C 
ATOM     21  O   THR A   1      22.679  18.406  24.550  0.00  0.00    -0.273 OA
ATOM     22  N   PRO A   2      22.245  19.416  22.589  0.00  0.00    -0.272 N 
ATOM     23  CA  PRO A   2      23.284  20.432  22.795  0.00  0.00    +0.152 C 
ATOM     24  CB  PRO A   2      23.201  21.276  21.516  0.00  0.00    +0.031 C 
ATOM     25  CG  PRO A   2      21.818  21.003  20.975  0.00  0.00    +0.024 C 
ATOM     26  CD  PRO A   2      21.651  19.540  21.246  0.00  0.00    +0.094 C 
BRANCH  20  27
ATOM     27  CA  THR A   1      20.909  17.462  23.238  0.00  0.00    +0.172 C 
BRANCH  27  28
ATOM     28  N   THR A   1      21.333  16.154  23.730  0.00  0.00    -0.236 NA
ATOM     29  H   THR A   1      21.474  16.024  24.752  0.00  0.00    +0.142 HD
ENDBRANCH  27  28
BRANCH  27  30
ATOM     30  CB  THR A   1      19.581  17.925  23.905  0.00  0.00    +0.135 C 
ATOM     31  CG2 THR A   1      19.706  17.939  25.426  0.00  0.00    +0.034 C 
BRANCH  30  32
ATOM     32  OG1 THR A   1      19.247  19.243  23.444  0.00  0.00    -0.383 OA
ATOM     33  HG1 THR A   1      19.974  19.870  23.686  0.00  0.00    +0.210 HD
ENDBRANCH  30  32
ENDBRANCH  27  30
ENDBRANCH  20  27
ENDBRANCH  16  23
ENDBRANCH  15  18
BRANCH  15  34
ATOM     34  CB  VAL A   3      21.552  23.708  25.422  0.00  0.00    +0.027 C 
ATOM     35  CG2 VAL A   3      21.371  24.510  26.709  0.00  0.00    +0.002 C 
ATOM     36  CG1 VAL A   3      20.491  24.089  24.391  0.00  0.00    +0.002 C 
ENDBRANCH  15  34
ENDBRANCH  11  15
ENDBRANCH  10  12
BRANCH  10  37
ATOM     37  CB  ASN A   4      18.510  21.960  29.571  0.00  0.00    +0.114 C 
BRANCH  37  38
ATOM     38  CG  ASN A   4      19.411  21.051  30.384  0.00  0.00    +0.222 C 
ATOM     39  ND2 ASN A   4      20.036  21.609  31.412  0.00  0.00    -0.329 N 
ATOM     40 HD21 ASN A   4      20.640  21.030  32.030  0.00  0.00    +0.145 HD
ATOM     41 HD22 ASN A   4      19.922  22.625  31.600  0.00  0.00    +0.145 HD
ATOM     42  OD1 ASN A   4      19.513  19.860  30.121  0.00  0.00    -0.275 OA
ENDBRANCH  37  38
ENDBRANCH  10  37
ENDBRANCH   6  10
ENDBRANCH   5   8
BRANCH   5  43
ATOM     43  CB  ILE A   5      15.379  22.590  24.665  0.00  0.00    +0.027 C 
ATOM     44  CG2 ILE A   5      16.676  23.090  24.027  0.00  0.00    +0.002 C 
BRANCH  43  45
ATOM     45  CG1 ILE A   5      15.159  21.120  24.315  0.00  0.00    +0.002 C 
ATOM     46  CD1 ILE A   5      15.140  20.843  22.818  0.00  0.00    +0.000 C 
ENDBRANCH  43  45
ENDBRANCH   5  43
ENDBRANCH   1   5
BRANCH   2  47
ATOM     47  CA  ILE A   6      11.983  23.548  27.655  0.00  0.00    +0.149 C 
BRANCH  47  48
ATOM     48  C   ILE A   6      11.028  23.737  26.478  0.00  0.00    +0.241 C 
ATOM     49  N   GLY A   7      10.340  22.657  26.117  0.00  0.00    -0.295 N 
ATOM     50  H   GLY A   7      10.469  21.771  26.647  0.00  0.00    +0.150 HD
ATOM     51  O   ILE A   6      10.951  24.821  25.890  0.00  0.00    -0.273 OA
BRANCH  49  52
ATOM     52  CA  GLY A   7       9.414  22.687  25.001  0.00  0.00    +0.176 C 
BRANCH  52  53
ATOM     53  C   GLY A   7       8.009  23.119  25.359  0.00  0.00    +0.243 C 
ATOM     54  O   GLY A   7       7.682  23.330  26.531  0.00  0.00    -0.273 OA
ATOM     55  N   ARG A   8       7.156  23.186  24.345  0.00  0.00    -0.297 N 
ATOM     56  H   ARG A   8       7.480  22.919  23.394  0.00  0.00    +0.150 HD
BRANCH  55  57
ATOM     57  CA  ARG A   8       5.780  23.623  24.527  0.00  0.00    +0.149 C 
BRANCH  57  58
ATOM     58  C   ARG A   8       4.957  22.824  25.527  0.00  0.00    +0.241 C 
ATOM     59  O   ARG A   8       4.043  23.378  26.136  0.00  0.00    -0.273 OA
ATOM     60  N   ASN A   9       5.286  21.545  25.728  0.00  0.00    -0.298 N 
ATOM     61  H   ASN A   9       6.082  21.126  25.206  0.00  0.00    +0.150 HD
BRANCH  60  62
ATOM     62  CA  ASN A   9       4.528  20.730  26.683  0.00  0.00    +0.146 C 
BRANCH  62  63
ATOM     63  C   ASN A   9       4.581  21.336  28.097  0.00  0.00    +0.227 C 
ATOM     64  O   ASN A   9       3.604  21.264  28.846  0.00  0.00    -0.286 OA
ENDBRANCH  62  63
BRANCH  62  65
ATOM     65  CB  ASN A   9       5.011  19.269  26.683  0.00  0.00    +0.112 C 
BRANCH  65  66
ATOM     66  CG  ASN A   9       6.386  19.097  27.302  0.00  0.00    +0.222 C 
ATOM     67  ND2 ASN A   9       6.467  18.266  28.336  0.00  0.00    -0.329 N 
ATOM     68 HD21 ASN A   9       7.383  18.103  28.802  0.00  0.00    +0.145 HD
ATOM     69 HD22 ASN A   9       5.615  17.779  28.679  0.00  0.00    +0.145 HD
ATOM     70  OD1 ASN A   9       7.363  19.698  26.857  0.00  0.00    -0.275 OA
ENDBRANCH  65  66
ENDBRANCH  62  65
ENDBRANCH  60  62
ENDBRANCH  57  58
BRANCH  57  71
ATOM     71  CB  ARG A   8       5.063  23.700  23.179  0.00  0.00    +0.033 C 
BRANCH  71  72
ATOM     72  CG  ARG A   8       5.684  24.718  22.218  0.00  0.00    +0.045 C 
BRANCH  72  73
ATOM     73  CD  ARG A   8       4.876  24.851  20.937  0.00  0.00    +0.174 C 
BRANCH  73  74
ATOM     74  NE  ARG A   8       4.824  23.602  20.178  0.00  0.00    -0.265 N 
ATOM     75  CZ  ARG A   8       3.813  22.735  20.211  0.00  0.00    +0.342 C 
ATOM     76  NH2 ARG A   8       2.749  22.969  20.961  0.00  0.00    -0.292 N 
ATOM     77 HH21 ARG A   8       2.696  23.836  21.532  0.00  0.00    +0.255 HD
ATOM     78 HH22 ARG A   8       1.965  22.286  20.979  0.00  0.00    +0.255 HD
ATOM     79  NH1 ARG A   8       3.874  21.617  19.498  0.00  0.00    -0.292 N 
ATOM     80 HH11 ARG A   8       3.085  20.940  19.524  0.00  0.00    +0.255 HD
ATOM     81 HH12 ARG A   8       4.711  21.418  18.914  0.00  0.00    +0.255 HD
ATOM     82  HE  ARG A   8       5.635  23.374  19.568  0.00  0.00    +0.259 HD
ENDBRANCH  73  74
ENDBRANCH  72  73
ENDBRANCH  71  72
ENDBRANCH  57  71
ENDBRANCH  55  57
ENDBRANCH  52  53
ENDBRANCH  49  52
ENDBRANCH  47  48
BRANCH  47  83
ATOM     83  CB  ILE A   6      11.736  24.652  28.712  0.00  0.00    +0.027 C 
ATOM     84  CG2 ILE A   6      10.381  24.453  29.375  0.00  0.00    +0.002 C 
BRANCH  83  85
ATOM     85  CG1 ILE A   6      12.846  24.629  29.769  0.00  0.00    +0.002 C 
ATOM     86  CD1 ILE A   6      13.067  23.264  30.410  0.00  0.00    +0.000 C 
ENDBRANCH  83  85
ENDBRANCH  47  83
ENDBRANCH   2  47
TORSDOF 32
REMARK  Name = ../refined-set-2016/2i4u/2i4u_pocket.pdb
REMARK  225 active torsions:
REMARK  status: ('A' for Active; 'I' for Inactive)
REMARK    1  A    between atoms: _1  and  _3
REMARK    2  A    between atoms: _3  and  _4
REMARK    3  A    between atoms: _3  and  _6
REMARK    4  A    between atoms: _6  and  _7
REMARK    5  A    between atoms: _7  and  _8
REMARK    6  A    between atoms: _8  and  _9
REMARK    7  A    between atoms: _18  and  _20
REMARK    8  A    between atoms: _20  and  _21
REMARK    9  A    between atoms: _20  and  _23
REMARK   10  A    between atoms: _23  and  _24
REMARK   11  A    between atoms: _27  and  _29
REMARK   12  A    between atoms: _29  and  _30
REMARK   13  A    between atoms: _29  and  _32
REMARK   14  A    between atoms: _32  and  _33
REMARK   15  A    between atoms: _36  and  _38
REMARK   16  A    between atoms: _38  and  _39
REMARK   17  A    between atoms: _38  and  _41
REMARK   18  A    between atoms: _41  and  _42
REMARK   19  A    between atoms: _45  and  _47
REMARK   20  A    between atoms: _47  and  _48
REMARK   21  A    between atoms: _47  and  _50
REMARK   22  A    between atoms: _50  and  _51
REMARK   23  A    between atoms: _54  and  _56
REMARK   24  A    between atoms: _56  and  _57
REMARK   25  A    between atoms: _59  and  _61
REMARK   26  A    between atoms: _61  and  _62
REMARK   27  A    between atoms: _65  and  _67
REMARK   28  A    between atoms: _67  and  _68
REMARK   29  A    between atoms: _67  and  _70
REMARK   30  A    between atoms: _70  and  _71
REMARK   31  A    between atoms: _74  and  _76
REMARK   32  A    between atoms: _76  and  _77
REMARK   33  A    between atoms: _76  and  _79
REMARK   34  A    between atoms: _79  and  _80
REMARK   35  A    between atoms: _83  and  _85
REMARK   36  A    between atoms: _85  and  _86
REMARK   37  A    between atoms: _85  and  _88
REMARK   38  A    between atoms: _88  and  _89
REMARK   39  A    between atoms: _92  and  _94
REMARK   40  A    between atoms: _94  and  _95
REMARK   41  A    between atoms: _94  and  _97
REMARK   42  A    between atoms: _100  and  _102
REMARK   43  A    between atoms: _102  and  _103
REMARK   44  A    between atoms: _102  and  _105
REMARK   45  A    between atoms: _105  and  _106
REMARK   46  A    between atoms: _106  and  _107
REMARK   47  A    between atoms: _107  and  _108
REMARK   48  A    between atoms: _108  and  _109
REMARK   49  A    between atoms: _113  and  _115
REMARK   50  A    between atoms: _115  and  _116
REMARK   51  A    between atoms: _115  and  _118
REMARK   52  A    between atoms: _118  and  _119
REMARK   53  A    between atoms: _119  and  _120
REMARK   54  A    between atoms: _122  and  _124
REMARK   55  A    between atoms: _124  and  _125
REMARK   56  A    between atoms: _124  and  _127
REMARK   57  A    between atoms: _127  and  _128
REMARK   58  A    between atoms: _131  and  _133
REMARK   59  A    between atoms: _133  and  _134
REMARK   60  A    between atoms: _136  and  _138
REMARK   61  A    between atoms: _138  and  _139
REMARK   62  A    between atoms: _141  and  _143
REMARK   63  A    between atoms: _143  and  _144
REMARK   64  A    between atoms: _143  and  _146
REMARK   65  A    between atoms: _146  and  _147
REMARK   66  A    between atoms: _150  and  _152
REMARK   67  A    between atoms: _152  and  _153
REMARK   68  A    between atoms: _155  and  _157
REMARK   69  A    between atoms: _157  and  _158
REMARK   70  A    between atoms: _160  and  _162
REMARK   71  A    between atoms: _162  and  _163
REMARK   72  A    between atoms: _162  and  _165
REMARK   73  A    between atoms: _165  and  _166
REMARK   74  A    between atoms: _169  and  _171
REMARK   75  A    between atoms: _171  and  _172
REMARK   76  A    between atoms: _171  and  _174
REMARK   77  A    between atoms: _177  and  _179
REMARK   78  A    between atoms: _179  and  _180
REMARK   79  A    between atoms: _179  and  _182
REMARK   80  A    between atoms: _182  and  _183
REMARK   81  A    between atoms: _186  and  _188
REMARK   82  A    between atoms: _188  and  _189
REMARK   83  A    between atoms: _188  and  _191
REMARK   84  A    between atoms: _191  and  _192
REMARK   85  A    between atoms: _196  and  _197
REMARK   86  A    between atoms: _202  and  _204
REMARK   87  A    between atoms: _204  and  _205
REMARK   88  A    between atoms: _204  and  _207
REMARK   89  A    between atoms: _210  and  _212
REMARK   90  A    between atoms: _212  and  _213
REMARK   91  A    between atoms: _212  and  _215
REMARK   92  A    between atoms: _215  and  _216
REMARK   93  A    between atoms: _221  and  _223
REMARK   94  A    between atoms: _223  and  _224
REMARK   95  A    between atoms: _223  and  _226
REMARK   96  A    between atoms: _226  and  _227
REMARK   97  A    between atoms: _230  and  _232
REMARK   98  A    between atoms: _232  and  _233
REMARK   99  A    between atoms: _232  and  _235
REMARK  100  A    between atoms: _235  and  _236
REMARK  101  A    between atoms: _239  and  _241
REMARK  102  A    between atoms: _241  and  _242
REMARK  103  A    between atoms: _244  and  _246
REMARK  104  A    between atoms: _246  and  _247
REMARK  105  A    between atoms: _246  and  _249
REMARK  106  A    between atoms: _249  and  _250
REMARK  107  A    between atoms: _250  and  _251
REMARK  108  A    between atoms: _251  and  _252
REMARK  109  A    between atoms: _261  and  _263
REMARK  110  A    between atoms: _263  and  _264
REMARK  111  A    between atoms: _263  and  _266
REMARK  112  A    between atoms: _266  and  _267
REMARK  113  A    between atoms: _272  and  _274
REMARK  114  A    between atoms: _274  and  _275
REMARK  115  A    between atoms: _274  and  _277
REMARK  116  A    between atoms: _277  and  _278
REMARK  117  A    between atoms: _278  and  _279
REMARK  118  A    between atoms: _279  and  _280
REMARK  119  A    between atoms: _289  and  _291
REMARK  120  A    between atoms: _291  and  _292
REMARK  121  A    between atoms: _291  and  _294
REMARK  122  A    between atoms: _294  and  _295
REMARK  123  A    between atoms: _298  and  _300
REMARK  124  A    between atoms: _300  and  _301
REMARK  125  A    between atoms: _300  and  _303
REMARK  126  A    between atoms: _303  and  _304
REMARK  127  A    between atoms: _307  and  _309
REMARK  128  A    between atoms: _309  and  _310
REMARK  129  A    between atoms: _309  and  _312
REMARK  130  A    between atoms: _312  and  _313
REMARK  131  A    between atoms: _316  and  _318
REMARK  132  A    between atoms: _318  and  _319
REMARK  133  A    between atoms: _318  and  _321
REMARK  134  A    between atoms: _321  and  _322
REMARK  135  A    between atoms: _325  and  _327
REMARK  136  A    between atoms: _327  and  _328
REMARK  137  A    between atoms: _330  and  _332
REMARK  138  A    between atoms: _332  and  _333
REMARK  139  A    between atoms: _336  and  _338
REMARK  140  A    between atoms: _338  and  _339
REMARK  141  A    between atoms: _338  and  _341
REMARK  142  A    between atoms: _341  and  _342
REMARK  143  A    between atoms: _345  and  _347
REMARK  144  A    between atoms: _347  and  _348
REMARK  145  A    between atoms: _347  and  _350
REMARK  146  A    between atoms: _350  and  _351
REMARK  147  A    between atoms: _354  and  _356
REMARK  148  A    between atoms: _356  and  _357
REMARK  149  A    between atoms: _356  and  _359
REMARK  150  A    between atoms: _359  and  _360
REMARK  151  A    between atoms: _363  and  _365
REMARK  152  A    between atoms: _365  and  _366
REMARK  153  A    between atoms: _365  and  _368
REMARK  154  A    between atoms: _371  and  _373
REMARK  155  A    between atoms: _373  and  _374
REMARK  156  A    between atoms: _373  and  _376
REMARK  157  A    between atoms: _376  and  _377
REMARK  158  A    between atoms: _377  and  _378
REMARK  159  A    between atoms: _378  and  _379
REMARK  160  A    between atoms: _379  and  _380
REMARK  161  A    between atoms: _384  and  _386
REMARK  162  A    between atoms: _386  and  _387
REMARK  163  A    between atoms: _386  and  _389
REMARK  164  A    between atoms: _389  and  _390
REMARK  165  A    between atoms: _390  and  _391
REMARK  166  A    between atoms: _393  and  _395
REMARK  167  A    between atoms: _395  and  _396
REMARK  168  A    between atoms: _395  and  _398
REMARK  169  A    between atoms: _398  and  _399
REMARK  170  A    between atoms: _402  and  _404
REMARK  171  A    between atoms: _404  and  _405
REMARK  172  A    between atoms: _407  and  _409
REMARK  173  A    between atoms: _409  and  _410
REMARK  174  A    between atoms: _412  and  _414
REMARK  175  A    between atoms: _414  and  _415
REMARK  176  A    between atoms: _414  and  _417
REMARK  177  A    between atoms: _417  and  _418
REMARK  178  A    between atoms: _421  and  _423
REMARK  179  A    between atoms: _423  and  _424
REMARK  180  A    between atoms: _426  and  _428
REMARK  181  A    between atoms: _428  and  _429
REMARK  182  A    between atoms: _431  and  _433
REMARK  183  A    between atoms: _433  and  _434
REMARK  184  A    between atoms: _433  and  _436
REMARK  185  A    between atoms: _436  and  _437
REMARK  186  A    between atoms: _443  and  _445
REMARK  187  A    between atoms: _445  and  _446
REMARK  188  A    between atoms: _445  and  _448
REMARK  189  A    between atoms: _448  and  _449
REMARK  190  A    between atoms: _452  and  _454
REMARK  191  A    between atoms: _454  and  _455
REMARK  192  A    between atoms: _454  and  _457
REMARK  193  A    between atoms: _457  and  _458
REMARK  194  A    between atoms: _461  and  _463
REMARK  195  A    between atoms: _463  and  _464
REMARK  196  A    between atoms: _463  and  _466
REMARK  197  A    between atoms: _466  and  _467
REMARK  198  A    between atoms: _471  and  _472
REMARK  199  A    between atoms: _477  and  _479
REMARK  200  A    between atoms: _479  and  _480
REMARK  201  A    between atoms: _479  and  _482
REMARK  202  A    between atoms: _485  and  _487
REMARK  203  A    between atoms: _487  and  _488
REMARK  204  A    between atoms: _487  and  _490
REMARK  205  A    between atoms: _490  and  _491
REMARK  206  A    between atoms: _496  and  _498
REMARK  207  A    between atoms: _498  and  _499
REMARK  208  A    between atoms: _498  and  _501
REMARK  209  A    between atoms: _501  and  _502
REMARK  210  A    between atoms: _505  and  _507
REMARK  211  A    between atoms: _507  and  _508
REMARK  212  A    between atoms: _507  and  _510
REMARK  213  A    between atoms: _510  and  _511
REMARK  214  A    between atoms: _514  and  _516
REMARK  215  A    between atoms: _516  and  _517
REMARK  216  A    between atoms: _519  and  _521
REMARK  217  A    between atoms: _521  and  _522
REMARK  218  A    between atoms: _521  and  _524
REMARK  219  A    between atoms: _524  and  _525
REMARK  220  A    between atoms: _525  and  _526
REMARK  221  A    between atoms: _526  and  _527
REMARK  222  A    between atoms: _536  and  _538
REMARK  223  A    between atoms: _538  and  _539
REMARK  224  A    between atoms: _538  and  _541
REMARK  225  A    between atoms: _541  and  _542
REMARK                            x       y       z     vdW  Elec       q    Type
REMARK                         _______ _______ _______ _____ _____    ______ ____
ROOT
ATOM      1  O   HOH     1      17.817  30.996  21.593  0.00  0.00    +0.000 OA
ENDROOT
TORSDOF 0
REMARK  Name = ../refined-set-2016/2i4u/2i4u_pocket.pdb
REMARK  225 active torsions:
REMARK  status: ('A' for Active; 'I' for Inactive)
REMARK    1  A    between atoms: _1  and  _3
REMARK    2  A    between atoms: _3  and  _4
REMARK    3  A    between atoms: _3  and  _6
REMARK    4  A    between atoms: _6  and  _7
REMARK    5  A    between atoms: _7  and  _8
REMARK    6  A    between atoms: _8  and  _9
REMARK    7  A    between atoms: _18  and  _20
REMARK    8  A    between atoms: _20  and  _21
REMARK    9  A    between atoms: _20  and  _23
REMARK   10  A    between atoms: _23  and  _24
REMARK   11  A    between atoms: _27  and  _29
REMARK   12  A    between atoms: _29  and  _30
REMARK   13  A    between atoms: _29  and  _32
REMARK   14  A    between atoms: _32  and  _33
REMARK   15  A    between atoms: _36  and  _38
REMARK   16  A    between atoms: _38  and  _39
REMARK   17  A    between atoms: _38  and  _41
REMARK   18  A    between atoms: _41  and  _42
REMARK   19  A    between atoms: _45  and  _47
REMARK   20  A    between atoms: _47  and  _48
REMARK   21  A    between atoms: _47  and  _50
REMARK   22  A    between atoms: _50  and  _51
REMARK   23  A    between atoms: _54  and  _56
REMARK   24  A    between atoms: _56  and  _57
REMARK   25  A    between atoms: _59  and  _61
REMARK   26  A    between atoms: _61  and  _62
REMARK   27  A    between atoms: _65  and  _67
REMARK   28  A    between atoms: _67  and  _68
REMARK   29  A    between atoms: _67  and  _70
REMARK   30  A    between atoms: _70  and  _71
REMARK   31  A    between atoms: _74  and  _76
REMARK   32  A    between atoms: _76  and  _77
REMARK   33  A    between atoms: _76  and  _79
REMARK   34  A    between atoms: _79  and  _80
REMARK   35  A    between atoms: _83  and  _85
REMARK   36  A    between atoms: _85  and  _86
REMARK   37  A    between atoms: _85  and  _88
REMARK   38  A    between atoms: _88  and  _89
REMARK   39  A    between atoms: _92  and  _94
REMARK   40  A    between atoms: _94  and  _95
REMARK   41  A    between atoms: _94  and  _97
REMARK   42  A    between atoms: _100  and  _102
REMARK   43  A    between atoms: _102  and  _103
REMARK   44  A    between atoms: _102  and  _105
REMARK   45  A    between atoms: _105  and  _106
REMARK   46  A    between atoms: _106  and  _107
REMARK   47  A    between atoms: _107  and  _108
REMARK   48  A    between atoms: _108  and  _109
REMARK   49  A    between atoms: _113  and  _115
REMARK   50  A    between atoms: _115  and  _116
REMARK   51  A    between atoms: _115  and  _118
REMARK   52  A    between atoms: _118  and  _119
REMARK   53  A    between atoms: _119  and  _120
REMARK   54  A    between atoms: _122  and  _124
REMARK   55  A    between atoms: _124  and  _125
REMARK   56  A    between atoms: _124  and  _127
REMARK   57  A    between atoms: _127  and  _128
REMARK   58  A    between atoms: _131  and  _133
REMARK   59  A    between atoms: _133  and  _134
REMARK   60  A    between atoms: _136  and  _138
REMARK   61  A    between atoms: _138  and  _139
REMARK   62  A    between atoms: _141  and  _143
REMARK   63  A    between atoms: _143  and  _144
REMARK   64  A    between atoms: _143  and  _146
REMARK   65  A    between atoms: _146  and  _147
REMARK   66  A    between atoms: _150  and  _152
REMARK   67  A    between atoms: _152  and  _153
REMARK   68  A    between atoms: _155  and  _157
REMARK   69  A    between atoms: _157  and  _158
REMARK   70  A    between atoms: _160  and  _162
REMARK   71  A    between atoms: _162  and  _163
REMARK   72  A    between atoms: _162  and  _165
REMARK   73  A    between atoms: _165  and  _166
REMARK   74  A    between atoms: _169  and  _171
REMARK   75  A    between atoms: _171  and  _172
REMARK   76  A    between atoms: _171  and  _174
REMARK   77  A    between atoms: _177  and  _179
REMARK   78  A    between atoms: _179  and  _180
REMARK   79  A    between atoms: _179  and  _182
REMARK   80  A    between atoms: _182  and  _183
REMARK   81  A    between atoms: _186  and  _188
REMARK   82  A    between atoms: _188  and  _189
REMARK   83  A    between atoms: _188  and  _191
REMARK   84  A    between atoms: _191  and  _192
REMARK   85  A    between atoms: _196  and  _197
REMARK   86  A    between atoms: _202  and  _204
REMARK   87  A    between atoms: _204  and  _205
REMARK   88  A    between atoms: _204  and  _207
REMARK   89  A    between atoms: _210  and  _212
REMARK   90  A    between atoms: _212  and  _213
REMARK   91  A    between atoms: _212  and  _215
REMARK   92  A    between atoms: _215  and  _216
REMARK   93  A    between atoms: _221  and  _223
REMARK   94  A    between atoms: _223  and  _224
REMARK   95  A    between atoms: _223  and  _226
REMARK   96  A    between atoms: _226  and  _227
REMARK   97  A    between atoms: _230  and  _232
REMARK   98  A    between atoms: _232  and  _233
REMARK   99  A    between atoms: _232  and  _235
REMARK  100  A    between atoms: _235  and  _236
REMARK  101  A    between atoms: _239  and  _241
REMARK  102  A    between atoms: _241  and  _242
REMARK  103  A    between atoms: _244  and  _246
REMARK  104  A    between atoms: _246  and  _247
REMARK  105  A    between atoms: _246  and  _249
REMARK  106  A    between atoms: _249  and  _250
REMARK  107  A    between atoms: _250  and  _251
REMARK  108  A    between atoms: _251  and  _252
REMARK  109  A    between atoms: _261  and  _263
REMARK  110  A    between atoms: _263  and  _264
REMARK  111  A    between atoms: _263  and  _266
REMARK  112  A    between atoms: _266  and  _267
REMARK  113  A    between atoms: _272  and  _274
REMARK  114  A    between atoms: _274  and  _275
REMARK  115  A    between atoms: _274  and  _277
REMARK  116  A    between atoms: _277  and  _278
REMARK  117  A    between atoms: _278  and  _279
REMARK  118  A    between atoms: _279  and  _280
REMARK  119  A    between atoms: _289  and  _291
REMARK  120  A    between atoms: _291  and  _292
REMARK  121  A    between atoms: _291  and  _294
REMARK  122  A    between atoms: _294  and  _295
REMARK  123  A    between atoms: _298  and  _300
REMARK  124  A    between atoms: _300  and  _301
REMARK  125  A    between atoms: _300  and  _303
REMARK  126  A    between atoms: _303  and  _304
REMARK  127  A    between atoms: _307  and  _309
REMARK  128  A    between atoms: _309  and  _310
REMARK  129  A    between atoms: _309  and  _312
REMARK  130  A    between atoms: _312  and  _313
REMARK  131  A    between atoms: _316  and  _318
REMARK  132  A    between atoms: _318  and  _319
REMARK  133  A    between atoms: _318  and  _321
REMARK  134  A    between atoms: _321  and  _322
REMARK  135  A    between atoms: _325  and  _327
REMARK  136  A    between atoms: _327  and  _328
REMARK  137  A    between atoms: _330  and  _332
REMARK  138  A    between atoms: _332  and  _333
REMARK  139  A    between atoms: _336  and  _338
REMARK  140  A    between atoms: _338  and  _339
REMARK  141  A    between atoms: _338  and  _341
REMARK  142  A    between atoms: _341  and  _342
REMARK  143  A    between atoms: _345  and  _347
REMARK  144  A    between atoms: _347  and  _348
REMARK  145  A    between atoms: _347  and  _350
REMARK  146  A    between atoms: _350  and  _351
REMARK  147  A    between atoms: _354  and  _356
REMARK  148  A    between atoms: _356  and  _357
REMARK  149  A    between atoms: _356  and  _359
REMARK  150  A    between atoms: _359  and  _360
REMARK  151  A    between atoms: _363  and  _365
REMARK  152  A    between atoms: _365  and  _366
REMARK  153  A    between atoms: _365  and  _368
REMARK  154  A    between atoms: _371  and  _373
REMARK  155  A    between atoms: _373  and  _374
REMARK  156  A    between atoms: _373  and  _376
REMARK  157  A    between atoms: _376  and  _377
REMARK  158  A    between atoms: _377  and  _378
REMARK  159  A    between atoms: _378  and  _379
REMARK  160  A    between atoms: _379  and  _380
REMARK  161  A    between atoms: _384  and  _386
REMARK  162  A    between atoms: _386  and  _387
REMARK  163  A    between atoms: _386  and  _389
REMARK  164  A    between atoms: _389  and  _390
REMARK  165  A    between atoms: _390  and  _391
REMARK  166  A    between atoms: _393  and  _395
REMARK  167  A    between atoms: _395  and  _396
REMARK  168  A    between atoms: _395  and  _398
REMARK  169  A    between atoms: _398  and  _399
REMARK  170  A    between atoms: _402  and  _404
REMARK  171  A    between atoms: _404  and  _405
REMARK  172  A    between atoms: _407  and  _409
REMARK  173  A    between atoms: _409  and  _410
REMARK  174  A    between atoms: _412  and  _414
REMARK  175  A    between atoms: _414  and  _415
REMARK  176  A    between atoms: _414  and  _417
REMARK  177  A    between atoms: _417  and  _418
REMARK  178  A    between atoms: _421  and  _423
REMARK  179  A    between atoms: _423  and  _424
REMARK  180  A    between atoms: _426  and  _428
REMARK  181  A    between atoms: _428  and  _429
REMARK  182  A    between atoms: _431  and  _433
REMARK  183  A    between atoms: _433  and  _434
REMARK  184  A    between atoms: _433  and  _436
REMARK  185  A    between atoms: _436  and  _437
REMARK  186  A    between atoms: _443  and  _445
REMARK  187  A    between atoms: _445  and  _446
REMARK  188  A    between atoms: _445  and  _448
REMARK  189  A    between atoms: _448  and  _449
REMARK  190  A    between atoms: _452  and  _454
REMARK  191  A    between atoms: _454  and  _455
REMARK  192  A    between atoms: _454  and  _457
REMARK  193  A    between atoms: _457  and  _458
REMARK  194  A    between atoms: _461  and  _463
REMARK  195  A    between atoms: _463  and  _464
REMARK  196  A    between atoms: _463  and  _466
REMARK  197  A    between atoms: _466  and  _467
REMARK  198  A    between atoms: _471  and  _472
REMARK  199  A    between atoms: _477  and  _479
REMARK  200  A    between atoms: _479  and  _480
REMARK  201  A    between atoms: _479  and  _482
REMARK  202  A    between atoms: _485  and  _487
REMARK  203  A    between atoms: _487  and  _488
REMARK  204  A    between atoms: _487  and  _490
REMARK  205  A    between atoms: _490  and  _491
REMARK  206  A    between atoms: _496  and  _498
REMARK  207  A    between atoms: _498  and  _499
REMARK  208  A    between atoms: _498  and  _501
REMARK  209  A    between atoms: _501  and  _502
REMARK  210  A    between atoms: _505  and  _507
REMARK  211  A    between atoms: _507  and  _508
REMARK  212  A    between atoms: _507  and  _510
REMARK  213  A    between atoms: _510  and  _511
REMARK  214  A    between atoms: _514  and  _516
REMARK  215  A    between atoms: _516  and  _517
REMARK  216  A    between atoms: _519  and  _521
REMARK  217  A    between atoms: _521  and  _522
REMARK  218  A    between atoms: _521  and  _524
REMARK  219  A    between atoms: _524  and  _525
REMARK  220  A    between atoms: _525  and  _526
REMARK  221  A    between atoms: _526  and  _527
REMARK  222  A    between atoms: _536  and  _538
REMARK  223  A    between atoms: _538  and  _539
REMARK  224  A    between atoms: _538  and  _541
REMARK  225  A    between atoms: _541  and  _542
REMARK                            x       y       z     vdW  Elec       q    Type
REMARK                         _______ _______ _______ _____ _____    ______ ____
ROOT
ATOM      1  O   HOH     1      17.323  20.684  16.684  0.00  0.00    +0.000 OA
ENDROOT
TORSDOF 0
REMARK  Name = ../refined-set-2016/2i4u/2i4u_pocket.pdb
REMARK  225 active torsions:
REMARK  status: ('A' for Active; 'I' for Inactive)
REMARK    1  A    between atoms: _1  and  _3
REMARK    2  A    between atoms: _3  and  _4
REMARK    3  A    between atoms: _3  and  _6
REMARK    4  A    between atoms: _6  and  _7
REMARK    5  A    between atoms: _7  and  _8
REMARK    6  A    between atoms: _8  and  _9
REMARK    7  A    between atoms: _18  and  _20
REMARK    8  A    between atoms: _20  and  _21
REMARK    9  A    between atoms: _20  and  _23
REMARK   10  A    between atoms: _23  and  _24
REMARK   11  A    between atoms: _27  and  _29
REMARK   12  A    between atoms: _29  and  _30
REMARK   13  A    between atoms: _29  and  _32
REMARK   14  A    between atoms: _32  and  _33
REMARK   15  A    between atoms: _36  and  _38
REMARK   16  A    between atoms: _38  and  _39
REMARK   17  A    between atoms: _38  and  _41
REMARK   18  A    between atoms: _41  and  _42
REMARK   19  A    between atoms: _45  and  _47
REMARK   20  A    between atoms: _47  and  _48
REMARK   21  A    between atoms: _47  and  _50
REMARK   22  A    between atoms: _50  and  _51
REMARK   23  A    between atoms: _54  and  _56
REMARK   24  A    between atoms: _56  and  _57
REMARK   25  A    between atoms: _59  and  _61
REMARK   26  A    between atoms: _61  and  _62
REMARK   27  A    between atoms: _65  and  _67
REMARK   28  A    between atoms: _67  and  _68
REMARK   29  A    between atoms: _67  and  _70
REMARK   30  A    between atoms: _70  and  _71
REMARK   31  A    between atoms: _74  and  _76
REMARK   32  A    between atoms: _76  and  _77
REMARK   33  A    between atoms: _76  and  _79
REMARK   34  A    between atoms: _79  and  _80
REMARK   35  A    between atoms: _83  and  _85
REMARK   36  A    between atoms: _85  and  _86
REMARK   37  A    between atoms: _85  and  _88
REMARK   38  A    between atoms: _88  and  _89
REMARK   39  A    between atoms: _92  and  _94
REMARK   40  A    between atoms: _94  and  _95
REMARK   41  A    between atoms: _94  and  _97
REMARK   42  A    between atoms: _100  and  _102
REMARK   43  A    between atoms: _102  and  _103
REMARK   44  A    between atoms: _102  and  _105
REMARK   45  A    between atoms: _105  and  _106
REMARK   46  A    between atoms: _106  and  _107
REMARK   47  A    between atoms: _107  and  _108
REMARK   48  A    between atoms: _108  and  _109
REMARK   49  A    between atoms: _113  and  _115
REMARK   50  A    between atoms: _115  and  _116
REMARK   51  A    between atoms: _115  and  _118
REMARK   52  A    between atoms: _118  and  _119
REMARK   53  A    between atoms: _119  and  _120
REMARK   54  A    between atoms: _122  and  _124
REMARK   55  A    between atoms: _124  and  _125
REMARK   56  A    between atoms: _124  and  _127
REMARK   57  A    between atoms: _127  and  _128
REMARK   58  A    between atoms: _131  and  _133
REMARK   59  A    between atoms: _133  and  _134
REMARK   60  A    between atoms: _136  and  _138
REMARK   61  A    between atoms: _138  and  _139
REMARK   62  A    between atoms: _141  and  _143
REMARK   63  A    between atoms: _143  and  _144
REMARK   64  A    between atoms: _143  and  _146
REMARK   65  A    between atoms: _146  and  _147
REMARK   66  A    between atoms: _150  and  _152
REMARK   67  A    between atoms: _152  and  _153
REMARK   68  A    between atoms: _155  and  _157
REMARK   69  A    between atoms: _157  and  _158
REMARK   70  A    between atoms: _160  and  _162
REMARK   71  A    between atoms: _162  and  _163
REMARK   72  A    between atoms: _162  and  _165
REMARK   73  A    between atoms: _165  and  _166
REMARK   74  A    between atoms: _169  and  _171
REMARK   75  A    between atoms: _171  and  _172
REMARK   76  A    between atoms: _171  and  _174
REMARK   77  A    between atoms: _177  and  _179
REMARK   78  A    between atoms: _179  and  _180
REMARK   79  A    between atoms: _179  and  _182
REMARK   80  A    between atoms: _182  and  _183
REMARK   81  A    between atoms: _186  and  _188
REMARK   82  A    between atoms: _188  and  _189
REMARK   83  A    between atoms: _188  and  _191
REMARK   84  A    between atoms: _191  and  _192
REMARK   85  A    between atoms: _196  and  _197
REMARK   86  A    between atoms: _202  and  _204
REMARK   87  A    between atoms: _204  and  _205
REMARK   88  A    between atoms: _204  and  _207
REMARK   89  A    between atoms: _210  and  _212
REMARK   90  A    between atoms: _212  and  _213
REMARK   91  A    between atoms: _212  and  _215
REMARK   92  A    between atoms: _215  and  _216
REMARK   93  A    between atoms: _221  and  _223
REMARK   94  A    between atoms: _223  and  _224
REMARK   95  A    between atoms: _223  and  _226
REMARK   96  A    between atoms: _226  and  _227
REMARK   97  A    between atoms: _230  and  _232
REMARK   98  A    between atoms: _232  and  _233
REMARK   99  A    between atoms: _232  and  _235
REMARK  100  A    between atoms: _235  and  _236
REMARK  101  A    between atoms: _239  and  _241
REMARK  102  A    between atoms: _241  and  _242
REMARK  103  A    between atoms: _244  and  _246
REMARK  104  A    between atoms: _246  and  _247
REMARK  105  A    between atoms: _246  and  _249
REMARK  106  A    between atoms: _249  and  _250
REMARK  107  A    between atoms: _250  and  _251
REMARK  108  A    between atoms: _251  and  _252
REMARK  109  A    between atoms: _261  and  _263
REMARK  110  A    between atoms: _263  and  _264
REMARK  111  A    between atoms: _263  and  _266
REMARK  112  A    between atoms: _266  and  _267
REMARK  113  A    between atoms: _272  and  _274
REMARK  114  A    between atoms: _274  and  _275
REMARK  115  A    between atoms: _274  and  _277
REMARK  116  A    between atoms: _277  and  _278
REMARK  117  A    between atoms: _278  and  _279
REMARK  118  A    between atoms: _279  and  _280
REMARK  119  A    between atoms: _289  and  _291
REMARK  120  A    between atoms: _291  and  _292
REMARK  121  A    between atoms: _291  and  _294
REMARK  122  A    between atoms: _294  and  _295
REMARK  123  A    between atoms: _298  and  _300
REMARK  124  A    between atoms: _300  and  _301
REMARK  125  A    between atoms: _300  and  _303
REMARK  126  A    between atoms: _303  and  _304
REMARK  127  A    between atoms: _307  and  _309
REMARK  128  A    between atoms: _309  and  _310
REMARK  129  A    between atoms: _309  and  _312
REMARK  130  A    between atoms: _312  and  _313
REMARK  131  A    between atoms: _316  and  _318
REMARK  132  A    between atoms: _318  and  _319
REMARK  133  A    between atoms: _318  and  _321
REMARK  134  A    between atoms: _321  and  _322
REMARK  135  A    between atoms: _325  and  _327
REMARK  136  A    between atoms: _327  and  _328
REMARK  137  A    between atoms: _330  and  _332
REMARK  138  A    between atoms: _332  and  _333
REMARK  139  A    between atoms: _336  and  _338
REMARK  140  A    between atoms: _338  and  _339
REMARK  141  A    between atoms: _338  and  _341
REMARK  142  A    between atoms: _341  and  _342
REMARK  143  A    between atoms: _345  and  _347
REMARK  144  A    between atoms: _347  and  _348
REMARK  145  A    between atoms: _347  and  _350
REMARK  146  A    between atoms: _350  and  _351
REMARK  147  A    between atoms: _354  and  _356
REMARK  148  A    between atoms: _356  and  _357
REMARK  149  A    between atoms: _356  and  _359
REMARK  150  A    between atoms: _359  and  _360
REMARK  151  A    between atoms: _363  and  _365
REMARK  152  A    between atoms: _365  and  _366
REMARK  153  A    between atoms: _365  and  _368
REMARK  154  A    between atoms: _371  and  _373
REMARK  155  A    between atoms: _373  and  _374
REMARK  156  A    between atoms: _373  and  _376
REMARK  157  A    between atoms: _376  and  _377
REMARK  158  A    between atoms: _377  and  _378
REMARK  159  A    between atoms: _378  and  _379
REMARK  160  A    between atoms: _379  and  _380
REMARK  161  A    between atoms: _384  and  _386
REMARK  162  A    between atoms: _386  and  _387
REMARK  163  A    between atoms: _386  and  _389
REMARK  164  A    between atoms: _389  and  _390
REMARK  165  A    between atoms: _390  and  _391
REMARK  166  A    between atoms: _393  and  _395
REMARK  167  A    between atoms: _395  and  _396
REMARK  168  A    between atoms: _395  and  _398
REMARK  169  A    between atoms: _398  and  _399
REMARK  170  A    between atoms: _402  and  _404
REMARK  171  A    between atoms: _404  and  _405
REMARK  172  A    between atoms: _407  and  _409
REMARK  173  A    between atoms: _409  and  _410
REMARK  174  A    between atoms: _412  and  _414
REMARK  175  A    between atoms: _414  and  _415
REMARK  176  A    between atoms: _414  and  _417
REMARK  177  A    between atoms: _417  and  _418
REMARK  178  A    between atoms: _421  and  _423
REMARK  179  A    between atoms: _423  and  _424
REMARK  180  A    between atoms: _426  and  _428
REMARK  181  A    between atoms: _428  and  _429
REMARK  182  A    between atoms: _431  and  _433
REMARK  183  A    between atoms: _433  and  _434
REMARK  184  A    between atoms: _433  and  _436
REMARK  185  A    between atoms: _436  and  _437
REMARK  186  A    between atoms: _443  and  _445
REMARK  187  A    between atoms: _445  and  _446
REMARK  188  A    between atoms: _445  and  _448
REMARK  189  A    between atoms: _448  and  _449
REMARK  190  A    between atoms: _452  and  _454
REMARK  191  A    between atoms: _454  and  _455
REMARK  192  A    between atoms: _454  and  _457
REMARK  193  A    between atoms: _457  and  _458
REMARK  194  A    between atoms: _461  and  _463
REMARK  195  A    between atoms: _463  and  _464
REMARK  196  A    between atoms: _463  and  _466
REMARK  197  A    between atoms: _466  and  _467
REMARK  198  A    between atoms: _471  and  _472
REMARK  199  A    between atoms: _477  and  _479
REMARK  200  A    between atoms: _479  and  _480
REMARK  201  A    between atoms: _479  and  _482
REMARK  202  A    between atoms: _485  and  _487
REMARK  203  A    between atoms: _487  and  _488
REMARK  204  A    between atoms: _487  and  _490
REMARK  205  A    between atoms: _490  and  _491
REMARK  206  A    between atoms: _496  and  _498
REMARK  207  A    between atoms: _498  and  _499
REMARK  208  A    between atoms: _498  and  _501
REMARK  209  A    between atoms: _501  and  _502
REMARK  210  A    between atoms: _505  and  _507
REMARK  211  A    between atoms: _507  and  _508
REMARK  212  A    between atoms: _507  and  _510
REMARK  213  A    between atoms: _510  and  _511
REMARK  214  A    between atoms: _514  and  _516
REMARK  215  A    between atoms: _516  and  _517
REMARK  216  A    between atoms: _519  and  _521
REMARK  217  A    between atoms: _521  and  _522
REMARK  218  A    between atoms: _521  and  _524
REMARK  219  A    between atoms: _524  and  _525
REMARK  220  A    between atoms: _525  and  _526
REMARK  221  A    between atoms: _526  and  _527
REMARK  222  A    between atoms: _536  and  _538
REMARK  223  A    between atoms: _538  and  _539
REMARK  224  A    between atoms: _538  and  _541
REMARK  225  A    between atoms: _541  and  _542
REMARK                            x       y       z     vdW  Elec       q    Type
REMARK                         _______ _______ _______ _____ _____    ______ ____
ROOT
ATOM      1  O   HOH     1      20.225  28.248  18.084  0.00  0.00    +0.000 OA
ENDROOT
TORSDOF 0
REMARK  Name = ../refined-set-2016/2i4u/2i4u_pocket.pdb
REMARK  225 active torsions:
REMARK  status: ('A' for Active; 'I' for Inactive)
REMARK    1  A    between atoms: _1  and  _3
REMARK    2  A    between atoms: _3  and  _4
REMARK    3  A    between atoms: _3  and  _6
REMARK    4  A    between atoms: _6  and  _7
REMARK    5  A    between atoms: _7  and  _8
REMARK    6  A    between atoms: _8  and  _9
REMARK    7  A    between atoms: _18  and  _20
REMARK    8  A    between atoms: _20  and  _21
REMARK    9  A    between atoms: _20  and  _23
REMARK   10  A    between atoms: _23  and  _24
REMARK   11  A    between atoms: _27  and  _29
REMARK   12  A    between atoms: _29  and  _30
REMARK   13  A    between atoms: _29  and  _32
REMARK   14  A    between atoms: _32  and  _33
REMARK   15  A    between atoms: _36  and  _38
REMARK   16  A    between atoms: _38  and  _39
REMARK   17  A    between atoms: _38  and  _41
REMARK   18  A    between atoms: _41  and  _42
REMARK   19  A    between atoms: _45  and  _47
REMARK   20  A    between atoms: _47  and  _48
REMARK   21  A    between atoms: _47  and  _50
REMARK   22  A    between atoms: _50  and  _51
REMARK   23  A    between atoms: _54  and  _56
REMARK   24  A    between atoms: _56  and  _57
REMARK   25  A    between atoms: _59  and  _61
REMARK   26  A    between atoms: _61  and  _62
REMARK   27  A    between atoms: _65  and  _67
REMARK   28  A    between atoms: _67  and  _68
REMARK   29  A    between atoms: _67  and  _70
REMARK   30  A    between atoms: _70  and  _71
REMARK   31  A    between atoms: _74  and  _76
REMARK   32  A    between atoms: _76  and  _77
REMARK   33  A    between atoms: _76  and  _79
REMARK   34  A    between atoms: _79  and  _80
REMARK   35  A    between atoms: _83  and  _85
REMARK   36  A    between atoms: _85  and  _86
REMARK   37  A    between atoms: _85  and  _88
REMARK   38  A    between atoms: _88  and  _89
REMARK   39  A    between atoms: _92  and  _94
REMARK   40  A    between atoms: _94  and  _95
REMARK   41  A    between atoms: _94  and  _97
REMARK   42  A    between atoms: _100  and  _102
REMARK   43  A    between atoms: _102  and  _103
REMARK   44  A    between atoms: _102  and  _105
REMARK   45  A    between atoms: _105  and  _106
REMARK   46  A    between atoms: _106  and  _107
REMARK   47  A    between atoms: _107  and  _108
REMARK   48  A    between atoms: _108  and  _109
REMARK   49  A    between atoms: _113  and  _115
REMARK   50  A    between atoms: _115  and  _116
REMARK   51  A    between atoms: _115  and  _118
REMARK   52  A    between atoms: _118  and  _119
REMARK   53  A    between atoms: _119  and  _120
REMARK   54  A    between atoms: _122  and  _124
REMARK   55  A    between atoms: _124  and  _125
REMARK   56  A    between atoms: _124  and  _127
REMARK   57  A    between atoms: _127  and  _128
REMARK   58  A    between atoms: _131  and  _133
REMARK   59  A    between atoms: _133  and  _134
REMARK   60  A    between atoms: _136  and  _138
REMARK   61  A    between atoms: _138  and  _139
REMARK   62  A    between atoms: _141  and  _143
REMARK   63  A    between atoms: _143  and  _144
REMARK   64  A    between atoms: _143  and  _146
REMARK   65  A    between atoms: _146  and  _147
REMARK   66  A    between atoms: _150  and  _152
REMARK   67  A    between atoms: _152  and  _153
REMARK   68  A    between atoms: _155  and  _157
REMARK   69  A    between atoms: _157  and  _158
REMARK   70  A    between atoms: _160  and  _162
REMARK   71  A    between atoms: _162  and  _163
REMARK   72  A    between atoms: _162  and  _165
REMARK   73  A    between atoms: _165  and  _166
REMARK   74  A    between atoms: _169  and  _171
REMARK   75  A    between atoms: _171  and  _172
REMARK   76  A    between atoms: _171  and  _174
REMARK   77  A    between atoms: _177  and  _179
REMARK   78  A    between atoms: _179  and  _180
REMARK   79  A    between atoms: _179  and  _182
REMARK   80  A    between atoms: _182  and  _183
REMARK   81  A    between atoms: _186  and  _188
REMARK   82  A    between atoms: _188  and  _189
REMARK   83  A    between atoms: _188  and  _191
REMARK   84  A    between atoms: _191  and  _192
REMARK   85  A    between atoms: _196  and  _197
REMARK   86  A    between atoms: _202  and  _204
REMARK   87  A    between atoms: _204  and  _205
REMARK   88  A    between atoms: _204  and  _207
REMARK   89  A    between atoms: _210  and  _212
REMARK   90  A    between atoms: _212  and  _213
REMARK   91  A    between atoms: _212  and  _215
REMARK   92  A    between atoms: _215  and  _216
REMARK   93  A    between atoms: _221  and  _223
REMARK   94  A    between atoms: _223  and  _224
REMARK   95  A    between atoms: _223  and  _226
REMARK   96  A    between atoms: _226  and  _227
REMARK   97  A    between atoms: _230  and  _232
REMARK   98  A    between atoms: _232  and  _233
REMARK   99  A    between atoms: _232  and  _235
REMARK  100  A    between atoms: _235  and  _236
REMARK  101  A    between atoms: _239  and  _241
REMARK  102  A    between atoms: _241  and  _242
REMARK  103  A    between atoms: _244  and  _246
REMARK  104  A    between atoms: _246  and  _247
REMARK  105  A    between atoms: _246  and  _249
REMARK  106  A    between atoms: _249  and  _250
REMARK  107  A    between atoms: _250  and  _251
REMARK  108  A    between atoms: _251  and  _252
REMARK  109  A    between atoms: _261  and  _263
REMARK  110  A    between atoms: _263  and  _264
REMARK  111  A    between atoms: _263  and  _266
REMARK  112  A    between atoms: _266  and  _267
REMARK  113  A    between atoms: _272  and  _274
REMARK  114  A    between atoms: _274  and  _275
REMARK  115  A    between atoms: _274  and  _277
REMARK  116  A    between atoms: _277  and  _278
REMARK  117  A    between atoms: _278  and  _279
REMARK  118  A    between atoms: _279  and  _280
REMARK  119  A    between atoms: _289  and  _291
REMARK  120  A    between atoms: _291  and  _292
REMARK  121  A    between atoms: _291  and  _294
REMARK  122  A    between atoms: _294  and  _295
REMARK  123  A    between atoms: _298  and  _300
REMARK  124  A    between atoms: _300  and  _301
REMARK  125  A    between atoms: _300  and  _303
REMARK  126  A    between atoms: _303  and  _304
REMARK  127  A    between atoms: _307  and  _309
REMARK  128  A    between atoms: _309  and  _310
REMARK  129  A    between atoms: _309  and  _312
REMARK  130  A    between atoms: _312  and  _313
REMARK  131  A    between atoms: _316  and  _318
REMARK  132  A    between atoms: _318  and  _319
REMARK  133  A    between atoms: _318  and  _321
REMARK  134  A    between atoms: _321  and  _322
REMARK  135  A    between atoms: _325  and  _327
REMARK  136  A    between atoms: _327  and  _328
REMARK  137  A    between atoms: _330  and  _332
REMARK  138  A    between atoms: _332  and  _333
REMARK  139  A    between atoms: _336  and  _338
REMARK  140  A    between atoms: _338  and  _339
REMARK  141  A    between atoms: _338  and  _341
REMARK  142  A    between atoms: _341  and  _342
REMARK  143  A    between atoms: _345  and  _347
REMARK  144  A    between atoms: _347  and  _348
REMARK  145  A    between atoms: _347  and  _350
REMARK  146  A    between atoms: _350  and  _351
REMARK  147  A    between atoms: _354  and  _356
REMARK  148  A    between atoms: _356  and  _357
REMARK  149  A    between atoms: _356  and  _359
REMARK  150  A    between atoms: _359  and  _360
REMARK  151  A    between atoms: _363  and  _365
REMARK  152  A    between atoms: _365  and  _366
REMARK  153  A    between atoms: _365  and  _368
REMARK  154  A    between atoms: _371  and  _373
REMARK  155  A    between atoms: _373  and  _374
REMARK  156  A    between atoms: _373  and  _376
REMARK  157  A    between atoms: _376  and  _377
REMARK  158  A    between atoms: _377  and  _378
REMARK  159  A    between atoms: _378  and  _379
REMARK  160  A    between atoms: _379  and  _380
REMARK  161  A    between atoms: _384  and  _386
REMARK  162  A    between atoms: _386  and  _387
REMARK  163  A    between atoms: _386  and  _389
REMARK  164  A    between atoms: _389  and  _390
REMARK  165  A    between atoms: _390  and  _391
REMARK  166  A    between atoms: _393  and  _395
REMARK  167  A    between atoms: _395  and  _396
REMARK  168  A    between atoms: _395  and  _398
REMARK  169  A    between atoms: _398  and  _399
REMARK  170  A    between atoms: _402  and  _404
REMARK  171  A    between atoms: _404  and  _405
REMARK  172  A    between atoms: _407  and  _409
REMARK  173  A    between atoms: _409  and  _410
REMARK  174  A    between atoms: _412  and  _414
REMARK  175  A    between atoms: _414  and  _415
REMARK  176  A    between atoms: _414  and  _417
REMARK  177  A    between atoms: _417  and  _418
REMARK  178  A    between atoms: _421  and  _423
REMARK  179  A    between atoms: _423  and  _424
REMARK  180  A    between atoms: _426  and  _428
REMARK  181  A    between atoms: _428  and  _429
REMARK  182  A    between atoms: _431  and  _433
REMARK  183  A    between atoms: _433  and  _434
REMARK  184  A    between atoms: _433  and  _436
REMARK  185  A    between atoms: _436  and  _437
REMARK  186  A    between atoms: _443  and  _445
REMARK  187  A    between atoms: _445  and  _446
REMARK  188  A    between atoms: _445  and  _448
REMARK  189  A    between atoms: _448  and  _449
REMARK  190  A    between atoms: _452  and  _454
REMARK  191  A    between atoms: _454  and  _455
REMARK  192  A    between atoms: _454  and  _457
REMARK  193  A    between atoms: _457  and  _458
REMARK  194  A    between atoms: _461  and  _463
REMARK  195  A    between atoms: _463  and  _464
REMARK  196  A    between atoms: _463  and  _466
REMARK  197  A    between atoms: _466  and  _467
REMARK  198  A    between atoms: _471  and  _472
REMARK  199  A    between atoms: _477  and  _479
REMARK  200  A    between atoms: _479  and  _480
REMARK  201  A    between atoms: _479  and  _482
REMARK  202  A    between atoms: _485  and  _487
REMARK  203  A    between atoms: _487  and  _488
REMARK  204  A    between atoms: _487  and  _490
REMARK  205  A    between atoms: _490  and  _491
REMARK  206  A    between atoms: _496  and  _498
REMARK  207  A    between atoms: _498  and  _499
REMARK  208  A    between atoms: _498  and  _501
REMARK  209  A    between atoms: _501  and  _502
REMARK  210  A    between atoms: _505  and  _507
REMARK  211  A    between atoms: _507  and  _508
REMARK  212  A    between atoms: _507  and  _510
REMARK  213  A    between atoms: _510  and  _511
REMARK  214  A    between atoms: _514  and  _516
REMARK  215  A    between atoms: _516  and  _517
REMARK  216  A    between atoms: _519  and  _521
REMARK  217  A    between atoms: _521  and  _522
REMARK  218  A    between atoms: _521  and  _524
REMARK  219  A    between atoms: _524  and  _525
REMARK  220  A    between atoms: _525  and  _526
REMARK  221  A    between atoms: _526  and  _527
REMARK  222  A    between atoms: _536  and  _538
REMARK  223  A    between atoms: _538  and  _539
REMARK  224  A    between atoms: _538  and  _541
REMARK  225  A    between atoms: _541  and  _542
REMARK                            x       y       z     vdW  Elec       q    Type
REMARK                         _______ _______ _______ _____ _____    ______ ____
ROOT
ATOM      1  O   HOH     1      19.685  29.041  21.139  0.00  0.00    +0.000 OA
ENDROOT
TORSDOF 0
REMARK  Name = ../refined-set-2016/2i4u/2i4u_pocket.pdb
REMARK  225 active torsions:
REMARK  status: ('A' for Active; 'I' for Inactive)
REMARK    1  A    between atoms: _1  and  _3
REMARK    2  A    between atoms: _3  and  _4
REMARK    3  A    between atoms: _3  and  _6
REMARK    4  A    between atoms: _6  and  _7
REMARK    5  A    between atoms: _7  and  _8
REMARK    6  A    between atoms: _8  and  _9
REMARK    7  A    between atoms: _18  and  _20
REMARK    8  A    between atoms: _20  and  _21
REMARK    9  A    between atoms: _20  and  _23
REMARK   10  A    between atoms: _23  and  _24
REMARK   11  A    between atoms: _27  and  _29
REMARK   12  A    between atoms: _29  and  _30
REMARK   13  A    between atoms: _29  and  _32
REMARK   14  A    between atoms: _32  and  _33
REMARK   15  A    between atoms: _36  and  _38
REMARK   16  A    between atoms: _38  and  _39
REMARK   17  A    between atoms: _38  and  _41
REMARK   18  A    between atoms: _41  and  _42
REMARK   19  A    between atoms: _45  and  _47
REMARK   20  A    between atoms: _47  and  _48
REMARK   21  A    between atoms: _47  and  _50
REMARK   22  A    between atoms: _50  and  _51
REMARK   23  A    between atoms: _54  and  _56
REMARK   24  A    between atoms: _56  and  _57
REMARK   25  A    between atoms: _59  and  _61
REMARK   26  A    between atoms: _61  and  _62
REMARK   27  A    between atoms: _65  and  _67
REMARK   28  A    between atoms: _67  and  _68
REMARK   29  A    between atoms: _67  and  _70
REMARK   30  A    between atoms: _70  and  _71
REMARK   31  A    between atoms: _74  and  _76
REMARK   32  A    between atoms: _76  and  _77
REMARK   33  A    between atoms: _76  and  _79
REMARK   34  A    between atoms: _79  and  _80
REMARK   35  A    between atoms: _83  and  _85
REMARK   36  A    between atoms: _85  and  _86
REMARK   37  A    between atoms: _85  and  _88
REMARK   38  A    between atoms: _88  and  _89
REMARK   39  A    between atoms: _92  and  _94
REMARK   40  A    between atoms: _94  and  _95
REMARK   41  A    between atoms: _94  and  _97
REMARK   42  A    between atoms: _100  and  _102
REMARK   43  A    between atoms: _102  and  _103
REMARK   44  A    between atoms: _102  and  _105
REMARK   45  A    between atoms: _105  and  _106
REMARK   46  A    between atoms: _106  and  _107
REMARK   47  A    between atoms: _107  and  _108
REMARK   48  A    between atoms: _108  and  _109
REMARK   49  A    between atoms: _113  and  _115
REMARK   50  A    between atoms: _115  and  _116
REMARK   51  A    between atoms: _115  and  _118
REMARK   52  A    between atoms: _118  and  _119
REMARK   53  A    between atoms: _119  and  _120
REMARK   54  A    between atoms: _122  and  _124
REMARK   55  A    between atoms: _124  and  _125
REMARK   56  A    between atoms: _124  and  _127
REMARK   57  A    between atoms: _127  and  _128
REMARK   58  A    between atoms: _131  and  _133
REMARK   59  A    between atoms: _133  and  _134
REMARK   60  A    between atoms: _136  and  _138
REMARK   61  A    between atoms: _138  and  _139
REMARK   62  A    between atoms: _141  and  _143
REMARK   63  A    between atoms: _143  and  _144
REMARK   64  A    between atoms: _143  and  _146
REMARK   65  A    between atoms: _146  and  _147
REMARK   66  A    between atoms: _150  and  _152
REMARK   67  A    between atoms: _152  and  _153
REMARK   68  A    between atoms: _155  and  _157
REMARK   69  A    between atoms: _157  and  _158
REMARK   70  A    between atoms: _160  and  _162
REMARK   71  A    between atoms: _162  and  _163
REMARK   72  A    between atoms: _162  and  _165
REMARK   73  A    between atoms: _165  and  _166
REMARK   74  A    between atoms: _169  and  _171
REMARK   75  A    between atoms: _171  and  _172
REMARK   76  A    between atoms: _171  and  _174
REMARK   77  A    between atoms: _177  and  _179
REMARK   78  A    between atoms: _179  and  _180
REMARK   79  A    between atoms: _179  and  _182
REMARK   80  A    between atoms: _182  and  _183
REMARK   81  A    between atoms: _186  and  _188
REMARK   82  A    between atoms: _188  and  _189
REMARK   83  A    between atoms: _188  and  _191
REMARK   84  A    between atoms: _191  and  _192
REMARK   85  A    between atoms: _196  and  _197
REMARK   86  A    between atoms: _202  and  _204
REMARK   87  A    between atoms: _204  and  _205
REMARK   88  A    between atoms: _204  and  _207
REMARK   89  A    between atoms: _210  and  _212
REMARK   90  A    between atoms: _212  and  _213
REMARK   91  A    between atoms: _212  and  _215
REMARK   92  A    between atoms: _215  and  _216
REMARK   93  A    between atoms: _221  and  _223
REMARK   94  A    between atoms: _223  and  _224
REMARK   95  A    between atoms: _223  and  _226
REMARK   96  A    between atoms: _226  and  _227
REMARK   97  A    between atoms: _230  and  _232
REMARK   98  A    between atoms: _232  and  _233
REMARK   99  A    between atoms: _232  and  _235
REMARK  100  A    between atoms: _235  and  _236
REMARK  101  A    between atoms: _239  and  _241
REMARK  102  A    between atoms: _241  and  _242
REMARK  103  A    between atoms: _244  and  _246
REMARK  104  A    between atoms: _246  and  _247
REMARK  105  A    between atoms: _246  and  _249
REMARK  106  A    between atoms: _249  and  _250
REMARK  107  A    between atoms: _250  and  _251
REMARK  108  A    between atoms: _251  and  _252
REMARK  109  A    between atoms: _261  and  _263
REMARK  110  A    between atoms: _263  and  _264
REMARK  111  A    between atoms: _263  and  _266
REMARK  112  A    between atoms: _266  and  _267
REMARK  113  A    between atoms: _272  and  _274
REMARK  114  A    between atoms: _274  and  _275
REMARK  115  A    between atoms: _274  and  _277
REMARK  116  A    between atoms: _277  and  _278
REMARK  117  A    between atoms: _278  and  _279
REMARK  118  A    between atoms: _279  and  _280
REMARK  119  A    between atoms: _289  and  _291
REMARK  120  A    between atoms: _291  and  _292
REMARK  121  A    between atoms: _291  and  _294
REMARK  122  A    between atoms: _294  and  _295
REMARK  123  A    between atoms: _298  and  _300
REMARK  124  A    between atoms: _300  and  _301
REMARK  125  A    between atoms: _300  and  _303
REMARK  126  A    between atoms: _303  and  _304
REMARK  127  A    between atoms: _307  and  _309
REMARK  128  A    between atoms: _309  and  _310
REMARK  129  A    between atoms: _309  and  _312
REMARK  130  A    between atoms: _312  and  _313
REMARK  131  A    between atoms: _316  and  _318
REMARK  132  A    between atoms: _318  and  _319
REMARK  133  A    between atoms: _318  and  _321
REMARK  134  A    between atoms: _321  and  _322
REMARK  135  A    between atoms: _325  and  _327
REMARK  136  A    between atoms: _327  and  _328
REMARK  137  A    between atoms: _330  and  _332
REMARK  138  A    between atoms: _332  and  _333
REMARK  139  A    between atoms: _336  and  _338
REMARK  140  A    between atoms: _338  and  _339
REMARK  141  A    between atoms: _338  and  _341
REMARK  142  A    between atoms: _341  and  _342
REMARK  143  A    between atoms: _345  and  _347
REMARK  144  A    between atoms: _347  and  _348
REMARK  145  A    between atoms: _347  and  _350
REMARK  146  A    between atoms: _350  and  _351
REMARK  147  A    between atoms: _354  and  _356
REMARK  148  A    between atoms: _356  and  _357
REMARK  149  A    between atoms: _356  and  _359
REMARK  150  A    between atoms: _359  and  _360
REMARK  151  A    between atoms: _363  and  _365
REMARK  152  A    between atoms: _365  and  _366
REMARK  153  A    between atoms: _365  and  _368
REMARK  154  A    between atoms: _371  and  _373
REMARK  155  A    between atoms: _373  and  _374
REMARK  156  A    between atoms: _373  and  _376
REMARK  157  A    between atoms: _376  and  _377
REMARK  158  A    between atoms: _377  and  _378
REMARK  159  A    between atoms: _378  and  _379
REMARK  160  A    between atoms: _379  and  _380
REMARK  161  A    between atoms: _384  and  _386
REMARK  162  A    between atoms: _386  and  _387
REMARK  163  A    between atoms: _386  and  _389
REMARK  164  A    between atoms: _389  and  _390
REMARK  165  A    between atoms: _390  and  _391
REMARK  166  A    between atoms: _393  and  _395
REMARK  167  A    between atoms: _395  and  _396
REMARK  168  A    between atoms: _395  and  _398
REMARK  169  A    between atoms: _398  and  _399
REMARK  170  A    between atoms: _402  and  _404
REMARK  171  A    between atoms: _404  and  _405
REMARK  172  A    between atoms: _407  and  _409
REMARK  173  A    between atoms: _409  and  _410
REMARK  174  A    between atoms: _412  and  _414
REMARK  175  A    between atoms: _414  and  _415
REMARK  176  A    between atoms: _414  and  _417
REMARK  177  A    between atoms: _417  and  _418
REMARK  178  A    between atoms: _421  and  _423
REMARK  179  A    between atoms: _423  and  _424
REMARK  180  A    between atoms: _426  and  _428
REMARK  181  A    between atoms: _428  and  _429
REMARK  182  A    between atoms: _431  and  _433
REMARK  183  A    between atoms: _433  and  _434
REMARK  184  A    between atoms: _433  and  _436
REMARK  185  A    between atoms: _436  and  _437
REMARK  186  A    between atoms: _443  and  _445
REMARK  187  A    between atoms: _445  and  _446
REMARK  188  A    between atoms: _445  and  _448
REMARK  189  A    between atoms: _448  and  _449
REMARK  190  A    between atoms: _452  and  _454
REMARK  191  A    between atoms: _454  and  _455
REMARK  192  A    between atoms: _454  and  _457
REMARK  193  A    between atoms: _457  and  _458
REMARK  194  A    between atoms: _461  and  _463
REMARK  195  A    between atoms: _463  and  _464
REMARK  196  A    between atoms: _463  and  _466
REMARK  197  A    between atoms: _466  and  _467
REMARK  198  A    between atoms: _471  and  _472
REMARK  199  A    between atoms: _477  and  _479
REMARK  200  A    between atoms: _479  and  _480
REMARK  201  A    between atoms: _479  and  _482
REMARK  202  A    between atoms: _485  and  _487
REMARK  203  A    between atoms: _487  and  _488
REMARK  204  A    between atoms: _487  and  _490
REMARK  205  A    between atoms: _490  and  _491
REMARK  206  A    between atoms: _496  and  _498
REMARK  207  A    between atoms: _498  and  _499
REMARK  208  A    between atoms: _498  and  _501
REMARK  209  A    between atoms: _501  and  _502
REMARK  210  A    between atoms: _505  and  _507
REMARK  211  A    between atoms: _507  and  _508
REMARK  212  A    between atoms: _507  and  _510
REMARK  213  A    between atoms: _510  and  _511
REMARK  214  A    between atoms: _514  and  _516
REMARK  215  A    between atoms: _516  and  _517
REMARK  216  A    between atoms: _519  and  _521
REMARK  217  A    between atoms: _521  and  _522
REMARK  218  A    between atoms: _521  and  _524
REMARK  219  A    between atoms: _524  and  _525
REMARK  220  A    between atoms: _525  and  _526
REMARK  221  A    between atoms: _526  and  _527
REMARK  222  A    between atoms: _536  and  _538
REMARK  223  A    between atoms: _538  and  _539
REMARK  224  A    between atoms: _538  and  _541
REMARK  225  A    between atoms: _541  and  _542
REMARK                            x       y       z     vdW  Elec       q    Type
REMARK                         _______ _______ _______ _____ _____    ______ ____
ROOT
ATOM      1  O   HOH     1      20.337  35.818  17.260  0.00  0.00    +0.000 OA
ENDROOT
TORSDOF 0
REMARK  Name = ../refined-set-2016/2i4u/2i4u_pocket.pdb
REMARK  225 active torsions:
REMARK  status: ('A' for Active; 'I' for Inactive)
REMARK    1  A    between atoms: _1  and  _3
REMARK    2  A    between atoms: _3  and  _4
REMARK    3  A    between atoms: _3  and  _6
REMARK    4  A    between atoms: _6  and  _7
REMARK    5  A    between atoms: _7  and  _8
REMARK    6  A    between atoms: _8  and  _9
REMARK    7  A    between atoms: _18  and  _20
REMARK    8  A    between atoms: _20  and  _21
REMARK    9  A    between atoms: _20  and  _23
REMARK   10  A    between atoms: _23  and  _24
REMARK   11  A    between atoms: _27  and  _29
REMARK   12  A    between atoms: _29  and  _30
REMARK   13  A    between atoms: _29  and  _32
REMARK   14  A    between atoms: _32  and  _33
REMARK   15  A    between atoms: _36  and  _38
REMARK   16  A    between atoms: _38  and  _39
REMARK   17  A    between atoms: _38  and  _41
REMARK   18  A    between atoms: _41  and  _42
REMARK   19  A    between atoms: _45  and  _47
REMARK   20  A    between atoms: _47  and  _48
REMARK   21  A    between atoms: _47  and  _50
REMARK   22  A    between atoms: _50  and  _51
REMARK   23  A    between atoms: _54  and  _56
REMARK   24  A    between atoms: _56  and  _57
REMARK   25  A    between atoms: _59  and  _61
REMARK   26  A    between atoms: _61  and  _62
REMARK   27  A    between atoms: _65  and  _67
REMARK   28  A    between atoms: _67  and  _68
REMARK   29  A    between atoms: _67  and  _70
REMARK   30  A    between atoms: _70  and  _71
REMARK   31  A    between atoms: _74  and  _76
REMARK   32  A    between atoms: _76  and  _77
REMARK   33  A    between atoms: _76  and  _79
REMARK   34  A    between atoms: _79  and  _80
REMARK   35  A    between atoms: _83  and  _85
REMARK   36  A    between atoms: _85  and  _86
REMARK   37  A    between atoms: _85  and  _88
REMARK   38  A    between atoms: _88  and  _89
REMARK   39  A    between atoms: _92  and  _94
REMARK   40  A    between atoms: _94  and  _95
REMARK   41  A    between atoms: _94  and  _97
REMARK   42  A    between atoms: _100  and  _102
REMARK   43  A    between atoms: _102  and  _103
REMARK   44  A    between atoms: _102  and  _105
REMARK   45  A    between atoms: _105  and  _106
REMARK   46  A    between atoms: _106  and  _107
REMARK   47  A    between atoms: _107  and  _108
REMARK   48  A    between atoms: _108  and  _109
REMARK   49  A    between atoms: _113  and  _115
REMARK   50  A    between atoms: _115  and  _116
REMARK   51  A    between atoms: _115  and  _118
REMARK   52  A    between atoms: _118  and  _119
REMARK   53  A    between atoms: _119  and  _120
REMARK   54  A    between atoms: _122  and  _124
REMARK   55  A    between atoms: _124  and  _125
REMARK   56  A    between atoms: _124  and  _127
REMARK   57  A    between atoms: _127  and  _128
REMARK   58  A    between atoms: _131  and  _133
REMARK   59  A    between atoms: _133  and  _134
REMARK   60  A    between atoms: _136  and  _138
REMARK   61  A    between atoms: _138  and  _139
REMARK   62  A    between atoms: _141  and  _143
REMARK   63  A    between atoms: _143  and  _144
REMARK   64  A    between atoms: _143  and  _146
REMARK   65  A    between atoms: _146  and  _147
REMARK   66  A    between atoms: _150  and  _152
REMARK   67  A    between atoms: _152  and  _153
REMARK   68  A    between atoms: _155  and  _157
REMARK   69  A    between atoms: _157  and  _158
REMARK   70  A    between atoms: _160  and  _162
REMARK   71  A    between atoms: _162  and  _163
REMARK   72  A    between atoms: _162  and  _165
REMARK   73  A    between atoms: _165  and  _166
REMARK   74  A    between atoms: _169  and  _171
REMARK   75  A    between atoms: _171  and  _172
REMARK   76  A    between atoms: _171  and  _174
REMARK   77  A    between atoms: _177  and  _179
REMARK   78  A    between atoms: _179  and  _180
REMARK   79  A    between atoms: _179  and  _182
REMARK   80  A    between atoms: _182  and  _183
REMARK   81  A    between atoms: _186  and  _188
REMARK   82  A    between atoms: _188  and  _189
REMARK   83  A    between atoms: _188  and  _191
REMARK   84  A    between atoms: _191  and  _192
REMARK   85  A    between atoms: _196  and  _197
REMARK   86  A    between atoms: _202  and  _204
REMARK   87  A    between atoms: _204  and  _205
REMARK   88  A    between atoms: _204  and  _207
REMARK   89  A    between atoms: _210  and  _212
REMARK   90  A    between atoms: _212  and  _213
REMARK   91  A    between atoms: _212  and  _215
REMARK   92  A    between atoms: _215  and  _216
REMARK   93  A    between atoms: _221  and  _223
REMARK   94  A    between atoms: _223  and  _224
REMARK   95  A    between atoms: _223  and  _226
REMARK   96  A    between atoms: _226  and  _227
REMARK   97  A    between atoms: _230  and  _232
REMARK   98  A    between atoms: _232  and  _233
REMARK   99  A    between atoms: _232  and  _235
REMARK  100  A    between atoms: _235  and  _236
REMARK  101  A    between atoms: _239  and  _241
REMARK  102  A    between atoms: _241  and  _242
REMARK  103  A    between atoms: _244  and  _246
REMARK  104  A    between atoms: _246  and  _247
REMARK  105  A    between atoms: _246  and  _249
REMARK  106  A    between atoms: _249  and  _250
REMARK  107  A    between atoms: _250  and  _251
REMARK  108  A    between atoms: _251  and  _252
REMARK  109  A    between atoms: _261  and  _263
REMARK  110  A    between atoms: _263  and  _264
REMARK  111  A    between atoms: _263  and  _266
REMARK  112  A    between atoms: _266  and  _267
REMARK  113  A    between atoms: _272  and  _274
REMARK  114  A    between atoms: _274  and  _275
REMARK  115  A    between atoms: _274  and  _277
REMARK  116  A    between atoms: _277  and  _278
REMARK  117  A    between atoms: _278  and  _279
REMARK  118  A    between atoms: _279  and  _280
REMARK  119  A    between atoms: _289  and  _291
REMARK  120  A    between atoms: _291  and  _292
REMARK  121  A    between atoms: _291  and  _294
REMARK  122  A    between atoms: _294  and  _295
REMARK  123  A    between atoms: _298  and  _300
REMARK  124  A    between atoms: _300  and  _301
REMARK  125  A    between atoms: _300  and  _303
REMARK  126  A    between atoms: _303  and  _304
REMARK  127  A    between atoms: _307  and  _309
REMARK  128  A    between atoms: _309  and  _310
REMARK  129  A    between atoms: _309  and  _312
REMARK  130  A    between atoms: _312  and  _313
REMARK  131  A    between atoms: _316  and  _318
REMARK  132  A    between atoms: _318  and  _319
REMARK  133  A    between atoms: _318  and  _321
REMARK  134  A    between atoms: _321  and  _322
REMARK  135  A    between atoms: _325  and  _327
REMARK  136  A    between atoms: _327  and  _328
REMARK  137  A    between atoms: _330  and  _332
REMARK  138  A    between atoms: _332  and  _333
REMARK  139  A    between atoms: _336  and  _338
REMARK  140  A    between atoms: _338  and  _339
REMARK  141  A    between atoms: _338  and  _341
REMARK  142  A    between atoms: _341  and  _342
REMARK  143  A    between atoms: _345  and  _347
REMARK  144  A    between atoms: _347  and  _348
REMARK  145  A    between atoms: _347  and  _350
REMARK  146  A    between atoms: _350  and  _351
REMARK  147  A    between atoms: _354  and  _356
REMARK  148  A    between atoms: _356  and  _357
REMARK  149  A    between atoms: _356  and  _359
REMARK  150  A    between atoms: _359  and  _360
REMARK  151  A    between atoms: _363  and  _365
REMARK  152  A    between atoms: _365  and  _366
REMARK  153  A    between atoms: _365  and  _368
REMARK  154  A    between atoms: _371  and  _373
REMARK  155  A    between atoms: _373  and  _374
REMARK  156  A    between atoms: _373  and  _376
REMARK  157  A    between atoms: _376  and  _377
REMARK  158  A    between atoms: _377  and  _378
REMARK  159  A    between atoms: _378  and  _379
REMARK  160  A    between atoms: _379  and  _380
REMARK  161  A    between atoms: _384  and  _386
REMARK  162  A    between atoms: _386  and  _387
REMARK  163  A    between atoms: _386  and  _389
REMARK  164  A    between atoms: _389  and  _390
REMARK  165  A    between atoms: _390  and  _391
REMARK  166  A    between atoms: _393  and  _395
REMARK  167  A    between atoms: _395  and  _396
REMARK  168  A    between atoms: _395  and  _398
REMARK  169  A    between atoms: _398  and  _399
REMARK  170  A    between atoms: _402  and  _404
REMARK  171  A    between atoms: _404  and  _405
REMARK  172  A    between atoms: _407  and  _409
REMARK  173  A    between atoms: _409  and  _410
REMARK  174  A    between atoms: _412  and  _414
REMARK  175  A    between atoms: _414  and  _415
REMARK  176  A    between atoms: _414  and  _417
REMARK  177  A    between atoms: _417  and  _418
REMARK  178  A    between atoms: _421  and  _423
REMARK  179  A    between atoms: _423  and  _424
REMARK  180  A    between atoms: _426  and  _428
REMARK  181  A    between atoms: _428  and  _429
REMARK  182  A    between atoms: _431  and  _433
REMARK  183  A    between atoms: _433  and  _434
REMARK  184  A    between atoms: _433  and  _436
REMARK  185  A    between atoms: _436  and  _437
REMARK  186  A    between atoms: _443  and  _445
REMARK  187  A    between atoms: _445  and  _446
REMARK  188  A    between atoms: _445  and  _448
REMARK  189  A    between atoms: _448  and  _449
REMARK  190  A    between atoms: _452  and  _454
REMARK  191  A    between atoms: _454  and  _455
REMARK  192  A    between atoms: _454  and  _457
REMARK  193  A    between atoms: _457  and  _458
REMARK  194  A    between atoms: _461  and  _463
REMARK  195  A    between atoms: _463  and  _464
REMARK  196  A    between atoms: _463  and  _466
REMARK  197  A    between atoms: _466  and  _467
REMARK  198  A    between atoms: _471  and  _472
REMARK  199  A    between atoms: _477  and  _479
REMARK  200  A    between atoms: _479  and  _480
REMARK  201  A    between atoms: _479  and  _482
REMARK  202  A    between atoms: _485  and  _487
REMARK  203  A    between atoms: _487  and  _488
REMARK  204  A    between atoms: _487  and  _490
REMARK  205  A    between atoms: _490  and  _491
REMARK  206  A    between atoms: _496  and  _498
REMARK  207  A    between atoms: _498  and  _499
REMARK  208  A    between atoms: _498  and  _501
REMARK  209  A    between atoms: _501  and  _502
REMARK  210  A    between atoms: _505  and  _507
REMARK  211  A    between atoms: _507  and  _508
REMARK  212  A    between atoms: _507  and  _510
REMARK  213  A    between atoms: _510  and  _511
REMARK  214  A    between atoms: _514  and  _516
REMARK  215  A    between atoms: _516  and  _517
REMARK  216  A    between atoms: _519  and  _521
REMARK  217  A    between atoms: _521  and  _522
REMARK  218  A    between atoms: _521  and  _524
REMARK  219  A    between atoms: _524  and  _525
REMARK  220  A    between atoms: _525  and  _526
REMARK  221  A    between atoms: _526  and  _527
REMARK  222  A    between atoms: _536  and  _538
REMARK  223  A    between atoms: _538  and  _539
REMARK  224  A    between atoms: _538  and  _541
REMARK  225  A    between atoms: _541  and  _542
REMARK                            x       y       z     vdW  Elec       q    Type
REMARK                         _______ _______ _______ _____ _____    ______ ____
ROOT
ATOM      1  O   HOH     1      24.768  26.108  16.203  0.00  0.00    +0.000 OA
ENDROOT
TORSDOF 0
REMARK  Name = ../refined-set-2016/2i4u/2i4u_pocket.pdb
REMARK  225 active torsions:
REMARK  status: ('A' for Active; 'I' for Inactive)
REMARK    1  A    between atoms: _1  and  _3
REMARK    2  A    between atoms: _3  and  _4
REMARK    3  A    between atoms: _3  and  _6
REMARK    4  A    between atoms: _6  and  _7
REMARK    5  A    between atoms: _7  and  _8
REMARK    6  A    between atoms: _8  and  _9
REMARK    7  A    between atoms: _18  and  _20
REMARK    8  A    between atoms: _20  and  _21
REMARK    9  A    between atoms: _20  and  _23
REMARK   10  A    between atoms: _23  and  _24
REMARK   11  A    between atoms: _27  and  _29
REMARK   12  A    between atoms: _29  and  _30
REMARK   13  A    between atoms: _29  and  _32
REMARK   14  A    between atoms: _32  and  _33
REMARK   15  A    between atoms: _36  and  _38
REMARK   16  A    between atoms: _38  and  _39
REMARK   17  A    between atoms: _38  and  _41
REMARK   18  A    between atoms: _41  and  _42
REMARK   19  A    between atoms: _45  and  _47
REMARK   20  A    between atoms: _47  and  _48
REMARK   21  A    between atoms: _47  and  _50
REMARK   22  A    between atoms: _50  and  _51
REMARK   23  A    between atoms: _54  and  _56
REMARK   24  A    between atoms: _56  and  _57
REMARK   25  A    between atoms: _59  and  _61
REMARK   26  A    between atoms: _61  and  _62
REMARK   27  A    between atoms: _65  and  _67
REMARK   28  A    between atoms: _67  and  _68
REMARK   29  A    between atoms: _67  and  _70
REMARK   30  A    between atoms: _70  and  _71
REMARK   31  A    between atoms: _74  and  _76
REMARK   32  A    between atoms: _76  and  _77
REMARK   33  A    between atoms: _76  and  _79
REMARK   34  A    between atoms: _79  and  _80
REMARK   35  A    between atoms: _83  and  _85
REMARK   36  A    between atoms: _85  and  _86
REMARK   37  A    between atoms: _85  and  _88
REMARK   38  A    between atoms: _88  and  _89
REMARK   39  A    between atoms: _92  and  _94
REMARK   40  A    between atoms: _94  and  _95
REMARK   41  A    between atoms: _94  and  _97
REMARK   42  A    between atoms: _100  and  _102
REMARK   43  A    between atoms: _102  and  _103
REMARK   44  A    between atoms: _102  and  _105
REMARK   45  A    between atoms: _105  and  _106
REMARK   46  A    between atoms: _106  and  _107
REMARK   47  A    between atoms: _107  and  _108
REMARK   48  A    between atoms: _108  and  _109
REMARK   49  A    between atoms: _113  and  _115
REMARK   50  A    between atoms: _115  and  _116
REMARK   51  A    between atoms: _115  and  _118
REMARK   52  A    between atoms: _118  and  _119
REMARK   53  A    between atoms: _119  and  _120
REMARK   54  A    between atoms: _122  and  _124
REMARK   55  A    between atoms: _124  and  _125
REMARK   56  A    between atoms: _124  and  _127
REMARK   57  A    between atoms: _127  and  _128
REMARK   58  A    between atoms: _131  and  _133
REMARK   59  A    between atoms: _133  and  _134
REMARK   60  A    between atoms: _136  and  _138
REMARK   61  A    between atoms: _138  and  _139
REMARK   62  A    between atoms: _141  and  _143
REMARK   63  A    between atoms: _143  and  _144
REMARK   64  A    between atoms: _143  and  _146
REMARK   65  A    between atoms: _146  and  _147
REMARK   66  A    between atoms: _150  and  _152
REMARK   67  A    between atoms: _152  and  _153
REMARK   68  A    between atoms: _155  and  _157
REMARK   69  A    between atoms: _157  and  _158
REMARK   70  A    between atoms: _160  and  _162
REMARK   71  A    between atoms: _162  and  _163
REMARK   72  A    between atoms: _162  and  _165
REMARK   73  A    between atoms: _165  and  _166
REMARK   74  A    between atoms: _169  and  _171
REMARK   75  A    between atoms: _171  and  _172
REMARK   76  A    between atoms: _171  and  _174
REMARK   77  A    between atoms: _177  and  _179
REMARK   78  A    between atoms: _179  and  _180
REMARK   79  A    between atoms: _179  and  _182
REMARK   80  A    between atoms: _182  and  _183
REMARK   81  A    between atoms: _186  and  _188
REMARK   82  A    between atoms: _188  and  _189
REMARK   83  A    between atoms: _188  and  _191
REMARK   84  A    between atoms: _191  and  _192
REMARK   85  A    between atoms: _196  and  _197
REMARK   86  A    between atoms: _202  and  _204
REMARK   87  A    between atoms: _204  and  _205
REMARK   88  A    between atoms: _204  and  _207
REMARK   89  A    between atoms: _210  and  _212
REMARK   90  A    between atoms: _212  and  _213
REMARK   91  A    between atoms: _212  and  _215
REMARK   92  A    between atoms: _215  and  _216
REMARK   93  A    between atoms: _221  and  _223
REMARK   94  A    between atoms: _223  and  _224
REMARK   95  A    between atoms: _223  and  _226
REMARK   96  A    between atoms: _226  and  _227
REMARK   97  A    between atoms: _230  and  _232
REMARK   98  A    between atoms: _232  and  _233
REMARK   99  A    between atoms: _232  and  _235
REMARK  100  A    between atoms: _235  and  _236
REMARK  101  A    between atoms: _239  and  _241
REMARK  102  A    between atoms: _241  and  _242
REMARK  103  A    between atoms: _244  and  _246
REMARK  104  A    between atoms: _246  and  _247
REMARK  105  A    between atoms: _246  and  _249
REMARK  106  A    between atoms: _249  and  _250
REMARK  107  A    between atoms: _250  and  _251
REMARK  108  A    between atoms: _251  and  _252
REMARK  109  A    between atoms: _261  and  _263
REMARK  110  A    between atoms: _263  and  _264
REMARK  111  A    between atoms: _263  and  _266
REMARK  112  A    between atoms: _266  and  _267
REMARK  113  A    between atoms: _272  and  _274
REMARK  114  A    between atoms: _274  and  _275
REMARK  115  A    between atoms: _274  and  _277
REMARK  116  A    between atoms: _277  and  _278
REMARK  117  A    between atoms: _278  and  _279
REMARK  118  A    between atoms: _279  and  _280
REMARK  119  A    between atoms: _289  and  _291
REMARK  120  A    between atoms: _291  and  _292
REMARK  121  A    between atoms: _291  and  _294
REMARK  122  A    between atoms: _294  and  _295
REMARK  123  A    between atoms: _298  and  _300
REMARK  124  A    between atoms: _300  and  _301
REMARK  125  A    between atoms: _300  and  _303
REMARK  126  A    between atoms: _303  and  _304
REMARK  127  A    between atoms: _307  and  _309
REMARK  128  A    between atoms: _309  and  _310
REMARK  129  A    between atoms: _309  and  _312
REMARK  130  A    between atoms: _312  and  _313
REMARK  131  A    between atoms: _316  and  _318
REMARK  132  A    between atoms: _318  and  _319
REMARK  133  A    between atoms: _318  and  _321
REMARK  134  A    between atoms: _321  and  _322
REMARK  135  A    between atoms: _325  and  _327
REMARK  136  A    between atoms: _327  and  _328
REMARK  137  A    between atoms: _330  and  _332
REMARK  138  A    between atoms: _332  and  _333
REMARK  139  A    between atoms: _336  and  _338
REMARK  140  A    between atoms: _338  and  _339
REMARK  141  A    between atoms: _338  and  _341
REMARK  142  A    between atoms: _341  and  _342
REMARK  143  A    between atoms: _345  and  _347
REMARK  144  A    between atoms: _347  and  _348
REMARK  145  A    between atoms: _347  and  _350
REMARK  146  A    between atoms: _350  and  _351
REMARK  147  A    between atoms: _354  and  _356
REMARK  148  A    between atoms: _356  and  _357
REMARK  149  A    between atoms: _356  and  _359
REMARK  150  A    between atoms: _359  and  _360
REMARK  151  A    between atoms: _363  and  _365
REMARK  152  A    between atoms: _365  and  _366
REMARK  153  A    between atoms: _365  and  _368
REMARK  154  A    between atoms: _371  and  _373
REMARK  155  A    between atoms: _373  and  _374
REMARK  156  A    between atoms: _373  and  _376
REMARK  157  A    between atoms: _376  and  _377
REMARK  158  A    between atoms: _377  and  _378
REMARK  159  A    between atoms: _378  and  _379
REMARK  160  A    between atoms: _379  and  _380
REMARK  161  A    between atoms: _384  and  _386
REMARK  162  A    between atoms: _386  and  _387
REMARK  163  A    between atoms: _386  and  _389
REMARK  164  A    between atoms: _389  and  _390
REMARK  165  A    between atoms: _390  and  _391
REMARK  166  A    between atoms: _393  and  _395
REMARK  167  A    between atoms: _395  and  _396
REMARK  168  A    between atoms: _395  and  _398
REMARK  169  A    between atoms: _398  and  _399
REMARK  170  A    between atoms: _402  and  _404
REMARK  171  A    between atoms: _404  and  _405
REMARK  172  A    between atoms: _407  and  _409
REMARK  173  A    between atoms: _409  and  _410
REMARK  174  A    between atoms: _412  and  _414
REMARK  175  A    between atoms: _414  and  _415
REMARK  176  A    between atoms: _414  and  _417
REMARK  177  A    between atoms: _417  and  _418
REMARK  178  A    between atoms: _421  and  _423
REMARK  179  A    between atoms: _423  and  _424
REMARK  180  A    between atoms: _426  and  _428
REMARK  181  A    between atoms: _428  and  _429
REMARK  182  A    between atoms: _431  and  _433
REMARK  183  A    between atoms: _433  and  _434
REMARK  184  A    between atoms: _433  and  _436
REMARK  185  A    between atoms: _436  and  _437
REMARK  186  A    between atoms: _443  and  _445
REMARK  187  A    between atoms: _445  and  _446
REMARK  188  A    between atoms: _445  and  _448
REMARK  189  A    between atoms: _448  and  _449
REMARK  190  A    between atoms: _452  and  _454
REMARK  191  A    between atoms: _454  and  _455
REMARK  192  A    between atoms: _454  and  _457
REMARK  193  A    between atoms: _457  and  _458
REMARK  194  A    between atoms: _461  and  _463
REMARK  195  A    between atoms: _463  and  _464
REMARK  196  A    between atoms: _463  and  _466
REMARK  197  A    between atoms: _466  and  _467
REMARK  198  A    between atoms: _471  and  _472
REMARK  199  A    between atoms: _477  and  _479
REMARK  200  A    between atoms: _479  and  _480
REMARK  201  A    between atoms: _479  and  _482
REMARK  202  A    between atoms: _485  and  _487
REMARK  203  A    between atoms: _487  and  _488
REMARK  204  A    between atoms: _487  and  _490
REMARK  205  A    between atoms: _490  and  _491
REMARK  206  A    between atoms: _496  and  _498
REMARK  207  A    between atoms: _498  and  _499
REMARK  208  A    between atoms: _498  and  _501
REMARK  209  A    between atoms: _501  and  _502
REMARK  210  A    between atoms: _505  and  _507
REMARK  211  A    between atoms: _507  and  _508
REMARK  212  A    between atoms: _507  and  _510
REMARK  213  A    between atoms: _510  and  _511
REMARK  214  A    between atoms: _514  and  _516
REMARK  215  A    between atoms: _516  and  _517
REMARK  216  A    between atoms: _519  and  _521
REMARK  217  A    between atoms: _521  and  _522
REMARK  218  A    between atoms: _521  and  _524
REMARK  219  A    between atoms: _524  and  _525
REMARK  220  A    between atoms: _525  and  _526
REMARK  221  A    between atoms: _526  and  _527
REMARK  222  A    between atoms: _536  and  _538
REMARK  223  A    between atoms: _538  and  _539
REMARK  224  A    between atoms: _538  and  _541
REMARK  225  A    between atoms: _541  and  _542
REMARK                            x       y       z     vdW  Elec       q    Type
REMARK                         _______ _______ _______ _____ _____    ______ ____
ROOT
ATOM      1  O   HOH     1      29.201  28.448  14.104  0.00  0.00    +0.000 OA
ENDROOT
TORSDOF 0
REMARK  Name = ../refined-set-2016/2i4u/2i4u_pocket.pdb
REMARK  225 active torsions:
REMARK  status: ('A' for Active; 'I' for Inactive)
REMARK    1  A    between atoms: _1  and  _3
REMARK    2  A    between atoms: _3  and  _4
REMARK    3  A    between atoms: _3  and  _6
REMARK    4  A    between atoms: _6  and  _7
REMARK    5  A    between atoms: _7  and  _8
REMARK    6  A    between atoms: _8  and  _9
REMARK    7  A    between atoms: _18  and  _20
REMARK    8  A    between atoms: _20  and  _21
REMARK    9  A    between atoms: _20  and  _23
REMARK   10  A    between atoms: _23  and  _24
REMARK   11  A    between atoms: _27  and  _29
REMARK   12  A    between atoms: _29  and  _30
REMARK   13  A    between atoms: _29  and  _32
REMARK   14  A    between atoms: _32  and  _33
REMARK   15  A    between atoms: _36  and  _38
REMARK   16  A    between atoms: _38  and  _39
REMARK   17  A    between atoms: _38  and  _41
REMARK   18  A    between atoms: _41  and  _42
REMARK   19  A    between atoms: _45  and  _47
REMARK   20  A    between atoms: _47  and  _48
REMARK   21  A    between atoms: _47  and  _50
REMARK   22  A    between atoms: _50  and  _51
REMARK   23  A    between atoms: _54  and  _56
REMARK   24  A    between atoms: _56  and  _57
REMARK   25  A    between atoms: _59  and  _61
REMARK   26  A    between atoms: _61  and  _62
REMARK   27  A    between atoms: _65  and  _67
REMARK   28  A    between atoms: _67  and  _68
REMARK   29  A    between atoms: _67  and  _70
REMARK   30  A    between atoms: _70  and  _71
REMARK   31  A    between atoms: _74  and  _76
REMARK   32  A    between atoms: _76  and  _77
REMARK   33  A    between atoms: _76  and  _79
REMARK   34  A    between atoms: _79  and  _80
REMARK   35  A    between atoms: _83  and  _85
REMARK   36  A    between atoms: _85  and  _86
REMARK   37  A    between atoms: _85  and  _88
REMARK   38  A    between atoms: _88  and  _89
REMARK   39  A    between atoms: _92  and  _94
REMARK   40  A    between atoms: _94  and  _95
REMARK   41  A    between atoms: _94  and  _97
REMARK   42  A    between atoms: _100  and  _102
REMARK   43  A    between atoms: _102  and  _103
REMARK   44  A    between atoms: _102  and  _105
REMARK   45  A    between atoms: _105  and  _106
REMARK   46  A    between atoms: _106  and  _107
REMARK   47  A    between atoms: _107  and  _108
REMARK   48  A    between atoms: _108  and  _109
REMARK   49  A    between atoms: _113  and  _115
REMARK   50  A    between atoms: _115  and  _116
REMARK   51  A    between atoms: _115  and  _118
REMARK   52  A    between atoms: _118  and  _119
REMARK   53  A    between atoms: _119  and  _120
REMARK   54  A    between atoms: _122  and  _124
REMARK   55  A    between atoms: _124  and  _125
REMARK   56  A    between atoms: _124  and  _127
REMARK   57  A    between atoms: _127  and  _128
REMARK   58  A    between atoms: _131  and  _133
REMARK   59  A    between atoms: _133  and  _134
REMARK   60  A    between atoms: _136  and  _138
REMARK   61  A    between atoms: _138  and  _139
REMARK   62  A    between atoms: _141  and  _143
REMARK   63  A    between atoms: _143  and  _144
REMARK   64  A    between atoms: _143  and  _146
REMARK   65  A    between atoms: _146  and  _147
REMARK   66  A    between atoms: _150  and  _152
REMARK   67  A    between atoms: _152  and  _153
REMARK   68  A    between atoms: _155  and  _157
REMARK   69  A    between atoms: _157  and  _158
REMARK   70  A    between atoms: _160  and  _162
REMARK   71  A    between atoms: _162  and  _163
REMARK   72  A    between atoms: _162  and  _165
REMARK   73  A    between atoms: _165  and  _166
REMARK   74  A    between atoms: _169  and  _171
REMARK   75  A    between atoms: _171  and  _172
REMARK   76  A    between atoms: _171  and  _174
REMARK   77  A    between atoms: _177  and  _179
REMARK   78  A    between atoms: _179  and  _180
REMARK   79  A    between atoms: _179  and  _182
REMARK   80  A    between atoms: _182  and  _183
REMARK   81  A    between atoms: _186  and  _188
REMARK   82  A    between atoms: _188  and  _189
REMARK   83  A    between atoms: _188  and  _191
REMARK   84  A    between atoms: _191  and  _192
REMARK   85  A    between atoms: _196  and  _197
REMARK   86  A    between atoms: _202  and  _204
REMARK   87  A    between atoms: _204  and  _205
REMARK   88  A    between atoms: _204  and  _207
REMARK   89  A    between atoms: _210  and  _212
REMARK   90  A    between atoms: _212  and  _213
REMARK   91  A    between atoms: _212  and  _215
REMARK   92  A    between atoms: _215  and  _216
REMARK   93  A    between atoms: _221  and  _223
REMARK   94  A    between atoms: _223  and  _224
REMARK   95  A    between atoms: _223  and  _226
REMARK   96  A    between atoms: _226  and  _227
REMARK   97  A    between atoms: _230  and  _232
REMARK   98  A    between atoms: _232  and  _233
REMARK   99  A    between atoms: _232  and  _235
REMARK  100  A    between atoms: _235  and  _236
REMARK  101  A    between atoms: _239  and  _241
REMARK  102  A    between atoms: _241  and  _242
REMARK  103  A    between atoms: _244  and  _246
REMARK  104  A    between atoms: _246  and  _247
REMARK  105  A    between atoms: _246  and  _249
REMARK  106  A    between atoms: _249  and  _250
REMARK  107  A    between atoms: _250  and  _251
REMARK  108  A    between atoms: _251  and  _252
REMARK  109  A    between atoms: _261  and  _263
REMARK  110  A    between atoms: _263  and  _264
REMARK  111  A    between atoms: _263  and  _266
REMARK  112  A    between atoms: _266  and  _267
REMARK  113  A    between atoms: _272  and  _274
REMARK  114  A    between atoms: _274  and  _275
REMARK  115  A    between atoms: _274  and  _277
REMARK  116  A    between atoms: _277  and  _278
REMARK  117  A    between atoms: _278  and  _279
REMARK  118  A    between atoms: _279  and  _280
REMARK  119  A    between atoms: _289  and  _291
REMARK  120  A    between atoms: _291  and  _292
REMARK  121  A    between atoms: _291  and  _294
REMARK  122  A    between atoms: _294  and  _295
REMARK  123  A    between atoms: _298  and  _300
REMARK  124  A    between atoms: _300  and  _301
REMARK  125  A    between atoms: _300  and  _303
REMARK  126  A    between atoms: _303  and  _304
REMARK  127  A    between atoms: _307  and  _309
REMARK  128  A    between atoms: _309  and  _310
REMARK  129  A    between atoms: _309  and  _312
REMARK  130  A    between atoms: _312  and  _313
REMARK  131  A    between atoms: _316  and  _318
REMARK  132  A    between atoms: _318  and  _319
REMARK  133  A    between atoms: _318  and  _321
REMARK  134  A    between atoms: _321  and  _322
REMARK  135  A    between atoms: _325  and  _327
REMARK  136  A    between atoms: _327  and  _328
REMARK  137  A    between atoms: _330  and  _332
REMARK  138  A    between atoms: _332  and  _333
REMARK  139  A    between atoms: _336  and  _338
REMARK  140  A    between atoms: _338  and  _339
REMARK  141  A    between atoms: _338  and  _341
REMARK  142  A    between atoms: _341  and  _342
REMARK  143  A    between atoms: _345  and  _347
REMARK  144  A    between atoms: _347  and  _348
REMARK  145  A    between atoms: _347  and  _350
REMARK  146  A    between atoms: _350  and  _351
REMARK  147  A    between atoms: _354  and  _356
REMARK  148  A    between atoms: _356  and  _357
REMARK  149  A    between atoms: _356  and  _359
REMARK  150  A    between atoms: _359  and  _360
REMARK  151  A    between atoms: _363  and  _365
REMARK  152  A    between atoms: _365  and  _366
REMARK  153  A    between atoms: _365  and  _368
REMARK  154  A    between atoms: _371  and  _373
REMARK  155  A    between atoms: _373  and  _374
REMARK  156  A    between atoms: _373  and  _376
REMARK  157  A    between atoms: _376  and  _377
REMARK  158  A    between atoms: _377  and  _378
REMARK  159  A    between atoms: _378  and  _379
REMARK  160  A    between atoms: _379  and  _380
REMARK  161  A    between atoms: _384  and  _386
REMARK  162  A    between atoms: _386  and  _387
REMARK  163  A    between atoms: _386  and  _389
REMARK  164  A    between atoms: _389  and  _390
REMARK  165  A    between atoms: _390  and  _391
REMARK  166  A    between atoms: _393  and  _395
REMARK  167  A    between atoms: _395  and  _396
REMARK  168  A    between atoms: _395  and  _398
REMARK  169  A    between atoms: _398  and  _399
REMARK  170  A    between atoms: _402  and  _404
REMARK  171  A    between atoms: _404  and  _405
REMARK  172  A    between atoms: _407  and  _409
REMARK  173  A    between atoms: _409  and  _410
REMARK  174  A    between atoms: _412  and  _414
REMARK  175  A    between atoms: _414  and  _415
REMARK  176  A    between atoms: _414  and  _417
REMARK  177  A    between atoms: _417  and  _418
REMARK  178  A    between atoms: _421  and  _423
REMARK  179  A    between atoms: _423  and  _424
REMARK  180  A    between atoms: _426  and  _428
REMARK  181  A    between atoms: _428  and  _429
REMARK  182  A    between atoms: _431  and  _433
REMARK  183  A    between atoms: _433  and  _434
REMARK  184  A    between atoms: _433  and  _436
REMARK  185  A    between atoms: _436  and  _437
REMARK  186  A    between atoms: _443  and  _445
REMARK  187  A    between atoms: _445  and  _446
REMARK  188  A    between atoms: _445  and  _448
REMARK  189  A    between atoms: _448  and  _449
REMARK  190  A    between atoms: _452  and  _454
REMARK  191  A    between atoms: _454  and  _455
REMARK  192  A    between atoms: _454  and  _457
REMARK  193  A    between atoms: _457  and  _458
REMARK  194  A    between atoms: _461  and  _463
REMARK  195  A    between atoms: _463  and  _464
REMARK  196  A    between atoms: _463  and  _466
REMARK  197  A    between atoms: _466  and  _467
REMARK  198  A    between atoms: _471  and  _472
REMARK  199  A    between atoms: _477  and  _479
REMARK  200  A    between atoms: _479  and  _480
REMARK  201  A    between atoms: _479  and  _482
REMARK  202  A    between atoms: _485  and  _487
REMARK  203  A    between atoms: _487  and  _488
REMARK  204  A    between atoms: _487  and  _490
REMARK  205  A    between atoms: _490  and  _491
REMARK  206  A    between atoms: _496  and  _498
REMARK  207  A    between atoms: _498  and  _499
REMARK  208  A    between atoms: _498  and  _501
REMARK  209  A    between atoms: _501  and  _502
REMARK  210  A    between atoms: _505  and  _507
REMARK  211  A    between atoms: _507  and  _508
REMARK  212  A    between atoms: _507  and  _510
REMARK  213  A    between atoms: _510  and  _511
REMARK  214  A    between atoms: _514  and  _516
REMARK  215  A    between atoms: _516  and  _517
REMARK  216  A    between atoms: _519  and  _521
REMARK  217  A    between atoms: _521  and  _522
REMARK  218  A    between atoms: _521  and  _524
REMARK  219  A    between atoms: _524  and  _525
REMARK  220  A    between atoms: _525  and  _526
REMARK  221  A    between atoms: _526  and  _527
REMARK  222  A    between atoms: _536  and  _538
REMARK  223  A    between atoms: _538  and  _539
REMARK  224  A    between atoms: _538  and  _541
REMARK  225  A    between atoms: _541  and  _542
REMARK                            x       y       z     vdW  Elec       q    Type
REMARK                         _______ _______ _______ _____ _____    ______ ____
ROOT
ATOM      1  O   HOH     1      23.581  33.931  15.856  0.00  0.00    +0.000 OA
ENDROOT
TORSDOF 0
REMARK  Name = ../refined-set-2016/2i4u/2i4u_pocket.pdb
REMARK  225 active torsions:
REMARK  status: ('A' for Active; 'I' for Inactive)
REMARK    1  A    between atoms: _1  and  _3
REMARK    2  A    between atoms: _3  and  _4
REMARK    3  A    between atoms: _3  and  _6
REMARK    4  A    between atoms: _6  and  _7
REMARK    5  A    between atoms: _7  and  _8
REMARK    6  A    between atoms: _8  and  _9
REMARK    7  A    between atoms: _18  and  _20
REMARK    8  A    between atoms: _20  and  _21
REMARK    9  A    between atoms: _20  and  _23
REMARK   10  A    between atoms: _23  and  _24
REMARK   11  A    between atoms: _27  and  _29
REMARK   12  A    between atoms: _29  and  _30
REMARK   13  A    between atoms: _29  and  _32
REMARK   14  A    between atoms: _32  and  _33
REMARK   15  A    between atoms: _36  and  _38
REMARK   16  A    between atoms: _38  and  _39
REMARK   17  A    between atoms: _38  and  _41
REMARK   18  A    between atoms: _41  and  _42
REMARK   19  A    between atoms: _45  and  _47
REMARK   20  A    between atoms: _47  and  _48
REMARK   21  A    between atoms: _47  and  _50
REMARK   22  A    between atoms: _50  and  _51
REMARK   23  A    between atoms: _54  and  _56
REMARK   24  A    between atoms: _56  and  _57
REMARK   25  A    between atoms: _59  and  _61
REMARK   26  A    between atoms: _61  and  _62
REMARK   27  A    between atoms: _65  and  _67
REMARK   28  A    between atoms: _67  and  _68
REMARK   29  A    between atoms: _67  and  _70
REMARK   30  A    between atoms: _70  and  _71
REMARK   31  A    between atoms: _74  and  _76
REMARK   32  A    between atoms: _76  and  _77
REMARK   33  A    between atoms: _76  and  _79
REMARK   34  A    between atoms: _79  and  _80
REMARK   35  A    between atoms: _83  and  _85
REMARK   36  A    between atoms: _85  and  _86
REMARK   37  A    between atoms: _85  and  _88
REMARK   38  A    between atoms: _88  and  _89
REMARK   39  A    between atoms: _92  and  _94
REMARK   40  A    between atoms: _94  and  _95
REMARK   41  A    between atoms: _94  and  _97
REMARK   42  A    between atoms: _100  and  _102
REMARK   43  A    between atoms: _102  and  _103
REMARK   44  A    between atoms: _102  and  _105
REMARK   45  A    between atoms: _105  and  _106
REMARK   46  A    between atoms: _106  and  _107
REMARK   47  A    between atoms: _107  and  _108
REMARK   48  A    between atoms: _108  and  _109
REMARK   49  A    between atoms: _113  and  _115
REMARK   50  A    between atoms: _115  and  _116
REMARK   51  A    between atoms: _115  and  _118
REMARK   52  A    between atoms: _118  and  _119
REMARK   53  A    between atoms: _119  and  _120
REMARK   54  A    between atoms: _122  and  _124
REMARK   55  A    between atoms: _124  and  _125
REMARK   56  A    between atoms: _124  and  _127
REMARK   57  A    between atoms: _127  and  _128
REMARK   58  A    between atoms: _131  and  _133
REMARK   59  A    between atoms: _133  and  _134
REMARK   60  A    between atoms: _136  and  _138
REMARK   61  A    between atoms: _138  and  _139
REMARK   62  A    between atoms: _141  and  _143
REMARK   63  A    between atoms: _143  and  _144
REMARK   64  A    between atoms: _143  and  _146
REMARK   65  A    between atoms: _146  and  _147
REMARK   66  A    between atoms: _150  and  _152
REMARK   67  A    between atoms: _152  and  _153
REMARK   68  A    between atoms: _155  and  _157
REMARK   69  A    between atoms: _157  and  _158
REMARK   70  A    between atoms: _160  and  _162
REMARK   71  A    between atoms: _162  and  _163
REMARK   72  A    between atoms: _162  and  _165
REMARK   73  A    between atoms: _165  and  _166
REMARK   74  A    between atoms: _169  and  _171
REMARK   75  A    between atoms: _171  and  _172
REMARK   76  A    between atoms: _171  and  _174
REMARK   77  A    between atoms: _177  and  _179
REMARK   78  A    between atoms: _179  and  _180
REMARK   79  A    between atoms: _179  and  _182
REMARK   80  A    between atoms: _182  and  _183
REMARK   81  A    between atoms: _186  and  _188
REMARK   82  A    between atoms: _188  and  _189
REMARK   83  A    between atoms: _188  and  _191
REMARK   84  A    between atoms: _191  and  _192
REMARK   85  A    between atoms: _196  and  _197
REMARK   86  A    between atoms: _202  and  _204
REMARK   87  A    between atoms: _204  and  _205
REMARK   88  A    between atoms: _204  and  _207
REMARK   89  A    between atoms: _210  and  _212
REMARK   90  A    between atoms: _212  and  _213
REMARK   91  A    between atoms: _212  and  _215
REMARK   92  A    between atoms: _215  and  _216
REMARK   93  A    between atoms: _221  and  _223
REMARK   94  A    between atoms: _223  and  _224
REMARK   95  A    between atoms: _223  and  _226
REMARK   96  A    between atoms: _226  and  _227
REMARK   97  A    between atoms: _230  and  _232
REMARK   98  A    between atoms: _232  and  _233
REMARK   99  A    between atoms: _232  and  _235
REMARK  100  A    between atoms: _235  and  _236
REMARK  101  A    between atoms: _239  and  _241
REMARK  102  A    between atoms: _241  and  _242
REMARK  103  A    between atoms: _244  and  _246
REMARK  104  A    between atoms: _246  and  _247
REMARK  105  A    between atoms: _246  and  _249
REMARK  106  A    between atoms: _249  and  _250
REMARK  107  A    between atoms: _250  and  _251
REMARK  108  A    between atoms: _251  and  _252
REMARK  109  A    between atoms: _261  and  _263
REMARK  110  A    between atoms: _263  and  _264
REMARK  111  A    between atoms: _263  and  _266
REMARK  112  A    between atoms: _266  and  _267
REMARK  113  A    between atoms: _272  and  _274
REMARK  114  A    between atoms: _274  and  _275
REMARK  115  A    between atoms: _274  and  _277
REMARK  116  A    between atoms: _277  and  _278
REMARK  117  A    between atoms: _278  and  _279
REMARK  118  A    between atoms: _279  and  _280
REMARK  119  A    between atoms: _289  and  _291
REMARK  120  A    between atoms: _291  and  _292
REMARK  121  A    between atoms: _291  and  _294
REMARK  122  A    between atoms: _294  and  _295
REMARK  123  A    between atoms: _298  and  _300
REMARK  124  A    between atoms: _300  and  _301
REMARK  125  A    between atoms: _300  and  _303
REMARK  126  A    between atoms: _303  and  _304
REMARK  127  A    between atoms: _307  and  _309
REMARK  128  A    between atoms: _309  and  _310
REMARK  129  A    between atoms: _309  and  _312
REMARK  130  A    between atoms: _312  and  _313
REMARK  131  A    between atoms: _316  and  _318
REMARK  132  A    between atoms: _318  and  _319
REMARK  133  A    between atoms: _318  and  _321
REMARK  134  A    between atoms: _321  and  _322
REMARK  135  A    between atoms: _325  and  _327
REMARK  136  A    between atoms: _327  and  _328
REMARK  137  A    between atoms: _330  and  _332
REMARK  138  A    between atoms: _332  and  _333
REMARK  139  A    between atoms: _336  and  _338
REMARK  140  A    between atoms: _338  and  _339
REMARK  141  A    between atoms: _338  and  _341
REMARK  142  A    between atoms: _341  and  _342
REMARK  143  A    between atoms: _345  and  _347
REMARK  144  A    between atoms: _347  and  _348
REMARK  145  A    between atoms: _347  and  _350
REMARK  146  A    between atoms: _350  and  _351
REMARK  147  A    between atoms: _354  and  _356
REMARK  148  A    between atoms: _356  and  _357
REMARK  149  A    between atoms: _356  and  _359
REMARK  150  A    between atoms: _359  and  _360
REMARK  151  A    between atoms: _363  and  _365
REMARK  152  A    between atoms: _365  and  _366
REMARK  153  A    between atoms: _365  and  _368
REMARK  154  A    between atoms: _371  and  _373
REMARK  155  A    between atoms: _373  and  _374
REMARK  156  A    between atoms: _373  and  _376
REMARK  157  A    between atoms: _376  and  _377
REMARK  158  A    between atoms: _377  and  _378
REMARK  159  A    between atoms: _378  and  _379
REMARK  160  A    between atoms: _379  and  _380
REMARK  161  A    between atoms: _384  and  _386
REMARK  162  A    between atoms: _386  and  _387
REMARK  163  A    between atoms: _386  and  _389
REMARK  164  A    between atoms: _389  and  _390
REMARK  165  A    between atoms: _390  and  _391
REMARK  166  A    between atoms: _393  and  _395
REMARK  167  A    between atoms: _395  and  _396
REMARK  168  A    between atoms: _395  and  _398
REMARK  169  A    between atoms: _398  and  _399
REMARK  170  A    between atoms: _402  and  _404
REMARK  171  A    between atoms: _404  and  _405
REMARK  172  A    between atoms: _407  and  _409
REMARK  173  A    between atoms: _409  and  _410
REMARK  174  A    between atoms: _412  and  _414
REMARK  175  A    between atoms: _414  and  _415
REMARK  176  A    between atoms: _414  and  _417
REMARK  177  A    between atoms: _417  and  _418
REMARK  178  A    between atoms: _421  and  _423
REMARK  179  A    between atoms: _423  and  _424
REMARK  180  A    between atoms: _426  and  _428
REMARK  181  A    between atoms: _428  and  _429
REMARK  182  A    between atoms: _431  and  _433
REMARK  183  A    between atoms: _433  and  _434
REMARK  184  A    between atoms: _433  and  _436
REMARK  185  A    between atoms: _436  and  _437
REMARK  186  A    between atoms: _443  and  _445
REMARK  187  A    between atoms: _445  and  _446
REMARK  188  A    between atoms: _445  and  _448
REMARK  189  A    between atoms: _448  and  _449
REMARK  190  A    between atoms: _452  and  _454
REMARK  191  A    between atoms: _454  and  _455
REMARK  192  A    between atoms: _454  and  _457
REMARK  193  A    between atoms: _457  and  _458
REMARK  194  A    between atoms: _461  and  _463
REMARK  195  A    between atoms: _463  and  _464
REMARK  196  A    between atoms: _463  and  _466
REMARK  197  A    between atoms: _466  and  _467
REMARK  198  A    between atoms: _471  and  _472
REMARK  199  A    between atoms: _477  and  _479
REMARK  200  A    between atoms: _479  and  _480
REMARK  201  A    between atoms: _479  and  _482
REMARK  202  A    between atoms: _485  and  _487
REMARK  203  A    between atoms: _487  and  _488
REMARK  204  A    between atoms: _487  and  _490
REMARK  205  A    between atoms: _490  and  _491
REMARK  206  A    between atoms: _496  and  _498
REMARK  207  A    between atoms: _498  and  _499
REMARK  208  A    between atoms: _498  and  _501
REMARK  209  A    between atoms: _501  and  _502
REMARK  210  A    between atoms: _505  and  _507
REMARK  211  A    between atoms: _507  and  _508
REMARK  212  A    between atoms: _507  and  _510
REMARK  213  A    between atoms: _510  and  _511
REMARK  214  A    between atoms: _514  and  _516
REMARK  215  A    between atoms: _516  and  _517
REMARK  216  A    between atoms: _519  and  _521
REMARK  217  A    between atoms: _521  and  _522
REMARK  218  A    between atoms: _521  and  _524
REMARK  219  A    between atoms: _524  and  _525
REMARK  220  A    between atoms: _525  and  _526
REMARK  221  A    between atoms: _526  and  _527
REMARK  222  A    between atoms: _536  and  _538
REMARK  223  A    between atoms: _538  and  _539
REMARK  224  A    between atoms: _538  and  _541
REMARK  225  A    between atoms: _541  and  _542
REMARK                            x       y       z     vdW  Elec       q    Type
REMARK                         _______ _______ _______ _____ _____    ______ ____
ROOT
ATOM      1  O   HOH     1       7.703  18.194  11.080  0.00  0.00    +0.000 OA
ENDROOT
TORSDOF 0
REMARK  Name = ../refined-set-2016/2i4u/2i4u_pocket.pdb
REMARK  225 active torsions:
REMARK  status: ('A' for Active; 'I' for Inactive)
REMARK    1  A    between atoms: _1  and  _3
REMARK    2  A    between atoms: _3  and  _4
REMARK    3  A    between atoms: _3  and  _6
REMARK    4  A    between atoms: _6  and  _7
REMARK    5  A    between atoms: _7  and  _8
REMARK    6  A    between atoms: _8  and  _9
REMARK    7  A    between atoms: _18  and  _20
REMARK    8  A    between atoms: _20  and  _21
REMARK    9  A    between atoms: _20  and  _23
REMARK   10  A    between atoms: _23  and  _24
REMARK   11  A    between atoms: _27  and  _29
REMARK   12  A    between atoms: _29  and  _30
REMARK   13  A    between atoms: _29  and  _32
REMARK   14  A    between atoms: _32  and  _33
REMARK   15  A    between atoms: _36  and  _38
REMARK   16  A    between atoms: _38  and  _39
REMARK   17  A    between atoms: _38  and  _41
REMARK   18  A    between atoms: _41  and  _42
REMARK   19  A    between atoms: _45  and  _47
REMARK   20  A    between atoms: _47  and  _48
REMARK   21  A    between atoms: _47  and  _50
REMARK   22  A    between atoms: _50  and  _51
REMARK   23  A    between atoms: _54  and  _56
REMARK   24  A    between atoms: _56  and  _57
REMARK   25  A    between atoms: _59  and  _61
REMARK   26  A    between atoms: _61  and  _62
REMARK   27  A    between atoms: _65  and  _67
REMARK   28  A    between atoms: _67  and  _68
REMARK   29  A    between atoms: _67  and  _70
REMARK   30  A    between atoms: _70  and  _71
REMARK   31  A    between atoms: _74  and  _76
REMARK   32  A    between atoms: _76  and  _77
REMARK   33  A    between atoms: _76  and  _79
REMARK   34  A    between atoms: _79  and  _80
REMARK   35  A    between atoms: _83  and  _85
REMARK   36  A    between atoms: _85  and  _86
REMARK   37  A    between atoms: _85  and  _88
REMARK   38  A    between atoms: _88  and  _89
REMARK   39  A    between atoms: _92  and  _94
REMARK   40  A    between atoms: _94  and  _95
REMARK   41  A    between atoms: _94  and  _97
REMARK   42  A    between atoms: _100  and  _102
REMARK   43  A    between atoms: _102  and  _103
REMARK   44  A    between atoms: _102  and  _105
REMARK   45  A    between atoms: _105  and  _106
REMARK   46  A    between atoms: _106  and  _107
REMARK   47  A    between atoms: _107  and  _108
REMARK   48  A    between atoms: _108  and  _109
REMARK   49  A    between atoms: _113  and  _115
REMARK   50  A    between atoms: _115  and  _116
REMARK   51  A    between atoms: _115  and  _118
REMARK   52  A    between atoms: _118  and  _119
REMARK   53  A    between atoms: _119  and  _120
REMARK   54  A    between atoms: _122  and  _124
REMARK   55  A    between atoms: _124  and  _125
REMARK   56  A    between atoms: _124  and  _127
REMARK   57  A    between atoms: _127  and  _128
REMARK   58  A    between atoms: _131  and  _133
REMARK   59  A    between atoms: _133  and  _134
REMARK   60  A    between atoms: _136  and  _138
REMARK   61  A    between atoms: _138  and  _139
REMARK   62  A    between atoms: _141  and  _143
REMARK   63  A    between atoms: _143  and  _144
REMARK   64  A    between atoms: _143  and  _146
REMARK   65  A    between atoms: _146  and  _147
REMARK   66  A    between atoms: _150  and  _152
REMARK   67  A    between atoms: _152  and  _153
REMARK   68  A    between atoms: _155  and  _157
REMARK   69  A    between atoms: _157  and  _158
REMARK   70  A    between atoms: _160  and  _162
REMARK   71  A    between atoms: _162  and  _163
REMARK   72  A    between atoms: _162  and  _165
REMARK   73  A    between atoms: _165  and  _166
REMARK   74  A    between atoms: _169  and  _171
REMARK   75  A    between atoms: _171  and  _172
REMARK   76  A    between atoms: _171  and  _174
REMARK   77  A    between atoms: _177  and  _179
REMARK   78  A    between atoms: _179  and  _180
REMARK   79  A    between atoms: _179  and  _182
REMARK   80  A    between atoms: _182  and  _183
REMARK   81  A    between atoms: _186  and  _188
REMARK   82  A    between atoms: _188  and  _189
REMARK   83  A    between atoms: _188  and  _191
REMARK   84  A    between atoms: _191  and  _192
REMARK   85  A    between atoms: _196  and  _197
REMARK   86  A    between atoms: _202  and  _204
REMARK   87  A    between atoms: _204  and  _205
REMARK   88  A    between atoms: _204  and  _207
REMARK   89  A    between atoms: _210  and  _212
REMARK   90  A    between atoms: _212  and  _213
REMARK   91  A    between atoms: _212  and  _215
REMARK   92  A    between atoms: _215  and  _216
REMARK   93  A    between atoms: _221  and  _223
REMARK   94  A    between atoms: _223  and  _224
REMARK   95  A    between atoms: _223  and  _226
REMARK   96  A    between atoms: _226  and  _227
REMARK   97  A    between atoms: _230  and  _232
REMARK   98  A    between atoms: _232  and  _233
REMARK   99  A    between atoms: _232  and  _235
REMARK  100  A    between atoms: _235  and  _236
REMARK  101  A    between atoms: _239  and  _241
REMARK  102  A    between atoms: _241  and  _242
REMARK  103  A    between atoms: _244  and  _246
REMARK  104  A    between atoms: _246  and  _247
REMARK  105  A    between atoms: _246  and  _249
REMARK  106  A    between atoms: _249  and  _250
REMARK  107  A    between atoms: _250  and  _251
REMARK  108  A    between atoms: _251  and  _252
REMARK  109  A    between atoms: _261  and  _263
REMARK  110  A    between atoms: _263  and  _264
REMARK  111  A    between atoms: _263  and  _266
REMARK  112  A    between atoms: _266  and  _267
REMARK  113  A    between atoms: _272  and  _274
REMARK  114  A    between atoms: _274  and  _275
REMARK  115  A    between atoms: _274  and  _277
REMARK  116  A    between atoms: _277  and  _278
REMARK  117  A    between atoms: _278  and  _279
REMARK  118  A    between atoms: _279  and  _280
REMARK  119  A    between atoms: _289  and  _291
REMARK  120  A    between atoms: _291  and  _292
REMARK  121  A    between atoms: _291  and  _294
REMARK  122  A    between atoms: _294  and  _295
REMARK  123  A    between atoms: _298  and  _300
REMARK  124  A    between atoms: _300  and  _301
REMARK  125  A    between atoms: _300  and  _303
REMARK  126  A    between atoms: _303  and  _304
REMARK  127  A    between atoms: _307  and  _309
REMARK  128  A    between atoms: _309  and  _310
REMARK  129  A    between atoms: _309  and  _312
REMARK  130  A    between atoms: _312  and  _313
REMARK  131  A    between atoms: _316  and  _318
REMARK  132  A    between atoms: _318  and  _319
REMARK  133  A    between atoms: _318  and  _321
REMARK  134  A    between atoms: _321  and  _322
REMARK  135  A    between atoms: _325  and  _327
REMARK  136  A    between atoms: _327  and  _328
REMARK  137  A    between atoms: _330  and  _332
REMARK  138  A    between atoms: _332  and  _333
REMARK  139  A    between atoms: _336  and  _338
REMARK  140  A    between atoms: _338  and  _339
REMARK  141  A    between atoms: _338  and  _341
REMARK  142  A    between atoms: _341  and  _342
REMARK  143  A    between atoms: _345  and  _347
REMARK  144  A    between atoms: _347  and  _348
REMARK  145  A    between atoms: _347  and  _350
REMARK  146  A    between atoms: _350  and  _351
REMARK  147  A    between atoms: _354  and  _356
REMARK  148  A    between atoms: _356  and  _357
REMARK  149  A    between atoms: _356  and  _359
REMARK  150  A    between atoms: _359  and  _360
REMARK  151  A    between atoms: _363  and  _365
REMARK  152  A    between atoms: _365  and  _366
REMARK  153  A    between atoms: _365  and  _368
REMARK  154  A    between atoms: _371  and  _373
REMARK  155  A    between atoms: _373  and  _374
REMARK  156  A    between atoms: _373  and  _376
REMARK  157  A    between atoms: _376  and  _377
REMARK  158  A    between atoms: _377  and  _378
REMARK  159  A    between atoms: _378  and  _379
REMARK  160  A    between atoms: _379  and  _380
REMARK  161  A    between atoms: _384  and  _386
REMARK  162  A    between atoms: _386  and  _387
REMARK  163  A    between atoms: _386  and  _389
REMARK  164  A    between atoms: _389  and  _390
REMARK  165  A    between atoms: _390  and  _391
REMARK  166  A    between atoms: _393  and  _395
REMARK  167  A    between atoms: _395  and  _396
REMARK  168  A    between atoms: _395  and  _398
REMARK  169  A    between atoms: _398  and  _399
REMARK  170  A    between atoms: _402  and  _404
REMARK  171  A    between atoms: _404  and  _405
REMARK  172  A    between atoms: _407  and  _409
REMARK  173  A    between atoms: _409  and  _410
REMARK  174  A    between atoms: _412  and  _414
REMARK  175  A    between atoms: _414  and  _415
REMARK  176  A    between atoms: _414  and  _417
REMARK  177  A    between atoms: _417  and  _418
REMARK  178  A    between atoms: _421  and  _423
REMARK  179  A    between atoms: _423  and  _424
REMARK  180  A    between atoms: _426  and  _428
REMARK  181  A    between atoms: _428  and  _429
REMARK  182  A    between atoms: _431  and  _433
REMARK  183  A    between atoms: _433  and  _434
REMARK  184  A    between atoms: _433  and  _436
REMARK  185  A    between atoms: _436  and  _437
REMARK  186  A    between atoms: _443  and  _445
REMARK  187  A    between atoms: _445  and  _446
REMARK  188  A    between atoms: _445  and  _448
REMARK  189  A    between atoms: _448  and  _449
REMARK  190  A    between atoms: _452  and  _454
REMARK  191  A    between atoms: _454  and  _455
REMARK  192  A    between atoms: _454  and  _457
REMARK  193  A    between atoms: _457  and  _458
REMARK  194  A    between atoms: _461  and  _463
REMARK  195  A    between atoms: _463  and  _464
REMARK  196  A    between atoms: _463  and  _466
REMARK  197  A    between atoms: _466  and  _467
REMARK  198  A    between atoms: _471  and  _472
REMARK  199  A    between atoms: _477  and  _479
REMARK  200  A    between atoms: _479  and  _480
REMARK  201  A    between atoms: _479  and  _482
REMARK  202  A    between atoms: _485  and  _487
REMARK  203  A    between atoms: _487  and  _488
REMARK  204  A    between atoms: _487  and  _490
REMARK  205  A    between atoms: _490  and  _491
REMARK  206  A    between atoms: _496  and  _498
REMARK  207  A    between atoms: _498  and  _499
REMARK  208  A    between atoms: _498  and  _501
REMARK  209  A    between atoms: _501  and  _502
REMARK  210  A    between atoms: _505  and  _507
REMARK  211  A    between atoms: _507  and  _508
REMARK  212  A    between atoms: _507  and  _510
REMARK  213  A    between atoms: _510  and  _511
REMARK  214  A    between atoms: _514  and  _516
REMARK  215  A    between atoms: _516  and  _517
REMARK  216  A    between atoms: _519  and  _521
REMARK  217  A    between atoms: _521  and  _522
REMARK  218  A    between atoms: _521  and  _524
REMARK  219  A    between atoms: _524  and  _525
REMARK  220  A    between atoms: _525  and  _526
REMARK  221  A    between atoms: _526  and  _527
REMARK  222  A    between atoms: _536  and  _538
REMARK  223  A    between atoms: _538  and  _539
REMARK  224  A    between atoms: _538  and  _541
REMARK  225  A    between atoms: _541  and  _542
REMARK                            x       y       z     vdW  Elec       q    Type
REMARK                         _______ _______ _______ _____ _____    ______ ____
ROOT
ATOM      1  O   HOH     1       4.133  22.185  11.630  0.00  0.00    +0.000 OA
ENDROOT
TORSDOF 0
REMARK  Name = ../refined-set-2016/2i4u/2i4u_pocket.pdb
REMARK  225 active torsions:
REMARK  status: ('A' for Active; 'I' for Inactive)
REMARK    1  A    between atoms: _1  and  _3
REMARK    2  A    between atoms: _3  and  _4
REMARK    3  A    between atoms: _3  and  _6
REMARK    4  A    between atoms: _6  and  _7
REMARK    5  A    between atoms: _7  and  _8
REMARK    6  A    between atoms: _8  and  _9
REMARK    7  A    between atoms: _18  and  _20
REMARK    8  A    between atoms: _20  and  _21
REMARK    9  A    between atoms: _20  and  _23
REMARK   10  A    between atoms: _23  and  _24
REMARK   11  A    between atoms: _27  and  _29
REMARK   12  A    between atoms: _29  and  _30
REMARK   13  A    between atoms: _29  and  _32
REMARK   14  A    between atoms: _32  and  _33
REMARK   15  A    between atoms: _36  and  _38
REMARK   16  A    between atoms: _38  and  _39
REMARK   17  A    between atoms: _38  and  _41
REMARK   18  A    between atoms: _41  and  _42
REMARK   19  A    between atoms: _45  and  _47
REMARK   20  A    between atoms: _47  and  _48
REMARK   21  A    between atoms: _47  and  _50
REMARK   22  A    between atoms: _50  and  _51
REMARK   23  A    between atoms: _54  and  _56
REMARK   24  A    between atoms: _56  and  _57
REMARK   25  A    between atoms: _59  and  _61
REMARK   26  A    between atoms: _61  and  _62
REMARK   27  A    between atoms: _65  and  _67
REMARK   28  A    between atoms: _67  and  _68
REMARK   29  A    between atoms: _67  and  _70
REMARK   30  A    between atoms: _70  and  _71
REMARK   31  A    between atoms: _74  and  _76
REMARK   32  A    between atoms: _76  and  _77
REMARK   33  A    between atoms: _76  and  _79
REMARK   34  A    between atoms: _79  and  _80
REMARK   35  A    between atoms: _83  and  _85
REMARK   36  A    between atoms: _85  and  _86
REMARK   37  A    between atoms: _85  and  _88
REMARK   38  A    between atoms: _88  and  _89
REMARK   39  A    between atoms: _92  and  _94
REMARK   40  A    between atoms: _94  and  _95
REMARK   41  A    between atoms: _94  and  _97
REMARK   42  A    between atoms: _100  and  _102
REMARK   43  A    between atoms: _102  and  _103
REMARK   44  A    between atoms: _102  and  _105
REMARK   45  A    between atoms: _105  and  _106
REMARK   46  A    between atoms: _106  and  _107
REMARK   47  A    between atoms: _107  and  _108
REMARK   48  A    between atoms: _108  and  _109
REMARK   49  A    between atoms: _113  and  _115
REMARK   50  A    between atoms: _115  and  _116
REMARK   51  A    between atoms: _115  and  _118
REMARK   52  A    between atoms: _118  and  _119
REMARK   53  A    between atoms: _119  and  _120
REMARK   54  A    between atoms: _122  and  _124
REMARK   55  A    between atoms: _124  and  _125
REMARK   56  A    between atoms: _124  and  _127
REMARK   57  A    between atoms: _127  and  _128
REMARK   58  A    between atoms: _131  and  _133
REMARK   59  A    between atoms: _133  and  _134
REMARK   60  A    between atoms: _136  and  _138
REMARK   61  A    between atoms: _138  and  _139
REMARK   62  A    between atoms: _141  and  _143
REMARK   63  A    between atoms: _143  and  _144
REMARK   64  A    between atoms: _143  and  _146
REMARK   65  A    between atoms: _146  and  _147
REMARK   66  A    between atoms: _150  and  _152
REMARK   67  A    between atoms: _152  and  _153
REMARK   68  A    between atoms: _155  and  _157
REMARK   69  A    between atoms: _157  and  _158
REMARK   70  A    between atoms: _160  and  _162
REMARK   71  A    between atoms: _162  and  _163
REMARK   72  A    between atoms: _162  and  _165
REMARK   73  A    between atoms: _165  and  _166
REMARK   74  A    between atoms: _169  and  _171
REMARK   75  A    between atoms: _171  and  _172
REMARK   76  A    between atoms: _171  and  _174
REMARK   77  A    between atoms: _177  and  _179
REMARK   78  A    between atoms: _179  and  _180
REMARK   79  A    between atoms: _179  and  _182
REMARK   80  A    between atoms: _182  and  _183
REMARK   81  A    between atoms: _186  and  _188
REMARK   82  A    between atoms: _188  and  _189
REMARK   83  A    between atoms: _188  and  _191
REMARK   84  A    between atoms: _191  and  _192
REMARK   85  A    between atoms: _196  and  _197
REMARK   86  A    between atoms: _202  and  _204
REMARK   87  A    between atoms: _204  and  _205
REMARK   88  A    between atoms: _204  and  _207
REMARK   89  A    between atoms: _210  and  _212
REMARK   90  A    between atoms: _212  and  _213
REMARK   91  A    between atoms: _212  and  _215
REMARK   92  A    between atoms: _215  and  _216
REMARK   93  A    between atoms: _221  and  _223
REMARK   94  A    between atoms: _223  and  _224
REMARK   95  A    between atoms: _223  and  _226
REMARK   96  A    between atoms: _226  and  _227
REMARK   97  A    between atoms: _230  and  _232
REMARK   98  A    between atoms: _232  and  _233
REMARK   99  A    between atoms: _232  and  _235
REMARK  100  A    between atoms: _235  and  _236
REMARK  101  A    between atoms: _239  and  _241
REMARK  102  A    between atoms: _241  and  _242
REMARK  103  A    between atoms: _244  and  _246
REMARK  104  A    between atoms: _246  and  _247
REMARK  105  A    between atoms: _246  and  _249
REMARK  106  A    between atoms: _249  and  _250
REMARK  107  A    between atoms: _250  and  _251
REMARK  108  A    between atoms: _251  and  _252
REMARK  109  A    between atoms: _261  and  _263
REMARK  110  A    between atoms: _263  and  _264
REMARK  111  A    between atoms: _263  and  _266
REMARK  112  A    between atoms: _266  and  _267
REMARK  113  A    between atoms: _272  and  _274
REMARK  114  A    between atoms: _274  and  _275
REMARK  115  A    between atoms: _274  and  _277
REMARK  116  A    between atoms: _277  and  _278
REMARK  117  A    between atoms: _278  and  _279
REMARK  118  A    between atoms: _279  and  _280
REMARK  119  A    between atoms: _289  and  _291
REMARK  120  A    between atoms: _291  and  _292
REMARK  121  A    between atoms: _291  and  _294
REMARK  122  A    between atoms: _294  and  _295
REMARK  123  A    between atoms: _298  and  _300
REMARK  124  A    between atoms: _300  and  _301
REMARK  125  A    between atoms: _300  and  _303
REMARK  126  A    between atoms: _303  and  _304
REMARK  127  A    between atoms: _307  and  _309
REMARK  128  A    between atoms: _309  and  _310
REMARK  129  A    between atoms: _309  and  _312
REMARK  130  A    between atoms: _312  and  _313
REMARK  131  A    between atoms: _316  and  _318
REMARK  132  A    between atoms: _318  and  _319
REMARK  133  A    between atoms: _318  and  _321
REMARK  134  A    between atoms: _321  and  _322
REMARK  135  A    between atoms: _325  and  _327
REMARK  136  A    between atoms: _327  and  _328
REMARK  137  A    between atoms: _330  and  _332
REMARK  138  A    between atoms: _332  and  _333
REMARK  139  A    between atoms: _336  and  _338
REMARK  140  A    between atoms: _338  and  _339
REMARK  141  A    between atoms: _338  and  _341
REMARK  142  A    between atoms: _341  and  _342
REMARK  143  A    between atoms: _345  and  _347
REMARK  144  A    between atoms: _347  and  _348
REMARK  145  A    between atoms: _347  and  _350
REMARK  146  A    between atoms: _350  and  _351
REMARK  147  A    between atoms: _354  and  _356
REMARK  148  A    between atoms: _356  and  _357
REMARK  149  A    between atoms: _356  and  _359
REMARK  150  A    between atoms: _359  and  _360
REMARK  151  A    between atoms: _363  and  _365
REMARK  152  A    between atoms: _365  and  _366
REMARK  153  A    between atoms: _365  and  _368
REMARK  154  A    between atoms: _371  and  _373
REMARK  155  A    between atoms: _373  and  _374
REMARK  156  A    between atoms: _373  and  _376
REMARK  157  A    between atoms: _376  and  _377
REMARK  158  A    between atoms: _377  and  _378
REMARK  159  A    between atoms: _378  and  _379
REMARK  160  A    between atoms: _379  and  _380
REMARK  161  A    between atoms: _384  and  _386
REMARK  162  A    between atoms: _386  and  _387
REMARK  163  A    between atoms: _386  and  _389
REMARK  164  A    between atoms: _389  and  _390
REMARK  165  A    between atoms: _390  and  _391
REMARK  166  A    between atoms: _393  and  _395
REMARK  167  A    between atoms: _395  and  _396
REMARK  168  A    between atoms: _395  and  _398
REMARK  169  A    between atoms: _398  and  _399
REMARK  170  A    between atoms: _402  and  _404
REMARK  171  A    between atoms: _404  and  _405
REMARK  172  A    between atoms: _407  and  _409
REMARK  173  A    between atoms: _409  and  _410
REMARK  174  A    between atoms: _412  and  _414
REMARK  175  A    between atoms: _414  and  _415
REMARK  176  A    between atoms: _414  and  _417
REMARK  177  A    between atoms: _417  and  _418
REMARK  178  A    between atoms: _421  and  _423
REMARK  179  A    between atoms: _423  and  _424
REMARK  180  A    between atoms: _426  and  _428
REMARK  181  A    between atoms: _428  and  _429
REMARK  182  A    between atoms: _431  and  _433
REMARK  183  A    between atoms: _433  and  _434
REMARK  184  A    between atoms: _433  and  _436
REMARK  185  A    between atoms: _436  and  _437
REMARK  186  A    between atoms: _443  and  _445
REMARK  187  A    between atoms: _445  and  _446
REMARK  188  A    between atoms: _445  and  _448
REMARK  189  A    between atoms: _448  and  _449
REMARK  190  A    between atoms: _452  and  _454
REMARK  191  A    between atoms: _454  and  _455
REMARK  192  A    between atoms: _454  and  _457
REMARK  193  A    between atoms: _457  and  _458
REMARK  194  A    between atoms: _461  and  _463
REMARK  195  A    between atoms: _463  and  _464
REMARK  196  A    between atoms: _463  and  _466
REMARK  197  A    between atoms: _466  and  _467
REMARK  198  A    between atoms: _471  and  _472
REMARK  199  A    between atoms: _477  and  _479
REMARK  200  A    between atoms: _479  and  _480
REMARK  201  A    between atoms: _479  and  _482
REMARK  202  A    between atoms: _485  and  _487
REMARK  203  A    between atoms: _487  and  _488
REMARK  204  A    between atoms: _487  and  _490
REMARK  205  A    between atoms: _490  and  _491
REMARK  206  A    between atoms: _496  and  _498
REMARK  207  A    between atoms: _498  and  _499
REMARK  208  A    between atoms: _498  and  _501
REMARK  209  A    between atoms: _501  and  _502
REMARK  210  A    between atoms: _505  and  _507
REMARK  211  A    between atoms: _507  and  _508
REMARK  212  A    between atoms: _507  and  _510
REMARK  213  A    between atoms: _510  and  _511
REMARK  214  A    between atoms: _514  and  _516
REMARK  215  A    between atoms: _516  and  _517
REMARK  216  A    between atoms: _519  and  _521
REMARK  217  A    between atoms: _521  and  _522
REMARK  218  A    between atoms: _521  and  _524
REMARK  219  A    between atoms: _524  and  _525
REMARK  220  A    between atoms: _525  and  _526
REMARK  221  A    between atoms: _526  and  _527
REMARK  222  A    between atoms: _536  and  _538
REMARK  223  A    between atoms: _538  and  _539
REMARK  224  A    between atoms: _538  and  _541
REMARK  225  A    between atoms: _541  and  _542
REMARK                            x       y       z     vdW  Elec       q    Type
REMARK                         _______ _______ _______ _____ _____    ______ ____
ROOT
ATOM      1  O   HOH     1      24.833  33.574  11.608  0.00  0.00    +0.000 OA
ENDROOT
TORSDOF 0
REMARK  Name = ../refined-set-2016/2i4u/2i4u_pocket.pdb
REMARK  225 active torsions:
REMARK  status: ('A' for Active; 'I' for Inactive)
REMARK    1  A    between atoms: _1  and  _3
REMARK    2  A    between atoms: _3  and  _4
REMARK    3  A    between atoms: _3  and  _6
REMARK    4  A    between atoms: _6  and  _7
REMARK    5  A    between atoms: _7  and  _8
REMARK    6  A    between atoms: _8  and  _9
REMARK    7  A    between atoms: _18  and  _20
REMARK    8  A    between atoms: _20  and  _21
REMARK    9  A    between atoms: _20  and  _23
REMARK   10  A    between atoms: _23  and  _24
REMARK   11  A    between atoms: _27  and  _29
REMARK   12  A    between atoms: _29  and  _30
REMARK   13  A    between atoms: _29  and  _32
REMARK   14  A    between atoms: _32  and  _33
REMARK   15  A    between atoms: _36  and  _38
REMARK   16  A    between atoms: _38  and  _39
REMARK   17  A    between atoms: _38  and  _41
REMARK   18  A    between atoms: _41  and  _42
REMARK   19  A    between atoms: _45  and  _47
REMARK   20  A    between atoms: _47  and  _48
REMARK   21  A    between atoms: _47  and  _50
REMARK   22  A    between atoms: _50  and  _51
REMARK   23  A    between atoms: _54  and  _56
REMARK   24  A    between atoms: _56  and  _57
REMARK   25  A    between atoms: _59  and  _61
REMARK   26  A    between atoms: _61  and  _62
REMARK   27  A    between atoms: _65  and  _67
REMARK   28  A    between atoms: _67  and  _68
REMARK   29  A    between atoms: _67  and  _70
REMARK   30  A    between atoms: _70  and  _71
REMARK   31  A    between atoms: _74  and  _76
REMARK   32  A    between atoms: _76  and  _77
REMARK   33  A    between atoms: _76  and  _79
REMARK   34  A    between atoms: _79  and  _80
REMARK   35  A    between atoms: _83  and  _85
REMARK   36  A    between atoms: _85  and  _86
REMARK   37  A    between atoms: _85  and  _88
REMARK   38  A    between atoms: _88  and  _89
REMARK   39  A    between atoms: _92  and  _94
REMARK   40  A    between atoms: _94  and  _95
REMARK   41  A    between atoms: _94  and  _97
REMARK   42  A    between atoms: _100  and  _102
REMARK   43  A    between atoms: _102  and  _103
REMARK   44  A    between atoms: _102  and  _105
REMARK   45  A    between atoms: _105  and  _106
REMARK   46  A    between atoms: _106  and  _107
REMARK   47  A    between atoms: _107  and  _108
REMARK   48  A    between atoms: _108  and  _109
REMARK   49  A    between atoms: _113  and  _115
REMARK   50  A    between atoms: _115  and  _116
REMARK   51  A    between atoms: _115  and  _118
REMARK   52  A    between atoms: _118  and  _119
REMARK   53  A    between atoms: _119  and  _120
REMARK   54  A    between atoms: _122  and  _124
REMARK   55  A    between atoms: _124  and  _125
REMARK   56  A    between atoms: _124  and  _127
REMARK   57  A    between atoms: _127  and  _128
REMARK   58  A    between atoms: _131  and  _133
REMARK   59  A    between atoms: _133  and  _134
REMARK   60  A    between atoms: _136  and  _138
REMARK   61  A    between atoms: _138  and  _139
REMARK   62  A    between atoms: _141  and  _143
REMARK   63  A    between atoms: _143  and  _144
REMARK   64  A    between atoms: _143  and  _146
REMARK   65  A    between atoms: _146  and  _147
REMARK   66  A    between atoms: _150  and  _152
REMARK   67  A    between atoms: _152  and  _153
REMARK   68  A    between atoms: _155  and  _157
REMARK   69  A    between atoms: _157  and  _158
REMARK   70  A    between atoms: _160  and  _162
REMARK   71  A    between atoms: _162  and  _163
REMARK   72  A    between atoms: _162  and  _165
REMARK   73  A    between atoms: _165  and  _166
REMARK   74  A    between atoms: _169  and  _171
REMARK   75  A    between atoms: _171  and  _172
REMARK   76  A    between atoms: _171  and  _174
REMARK   77  A    between atoms: _177  and  _179
REMARK   78  A    between atoms: _179  and  _180
REMARK   79  A    between atoms: _179  and  _182
REMARK   80  A    between atoms: _182  and  _183
REMARK   81  A    between atoms: _186  and  _188
REMARK   82  A    between atoms: _188  and  _189
REMARK   83  A    between atoms: _188  and  _191
REMARK   84  A    between atoms: _191  and  _192
REMARK   85  A    between atoms: _196  and  _197
REMARK   86  A    between atoms: _202  and  _204
REMARK   87  A    between atoms: _204  and  _205
REMARK   88  A    between atoms: _204  and  _207
REMARK   89  A    between atoms: _210  and  _212
REMARK   90  A    between atoms: _212  and  _213
REMARK   91  A    between atoms: _212  and  _215
REMARK   92  A    between atoms: _215  and  _216
REMARK   93  A    between atoms: _221  and  _223
REMARK   94  A    between atoms: _223  and  _224
REMARK   95  A    between atoms: _223  and  _226
REMARK   96  A    between atoms: _226  and  _227
REMARK   97  A    between atoms: _230  and  _232
REMARK   98  A    between atoms: _232  and  _233
REMARK   99  A    between atoms: _232  and  _235
REMARK  100  A    between atoms: _235  and  _236
REMARK  101  A    between atoms: _239  and  _241
REMARK  102  A    between atoms: _241  and  _242
REMARK  103  A    between atoms: _244  and  _246
REMARK  104  A    between atoms: _246  and  _247
REMARK  105  A    between atoms: _246  and  _249
REMARK  106  A    between atoms: _249  and  _250
REMARK  107  A    between atoms: _250  and  _251
REMARK  108  A    between atoms: _251  and  _252
REMARK  109  A    between atoms: _261  and  _263
REMARK  110  A    between atoms: _263  and  _264
REMARK  111  A    between atoms: _263  and  _266
REMARK  112  A    between atoms: _266  and  _267
REMARK  113  A    between atoms: _272  and  _274
REMARK  114  A    between atoms: _274  and  _275
REMARK  115  A    between atoms: _274  and  _277
REMARK  116  A    between atoms: _277  and  _278
REMARK  117  A    between atoms: _278  and  _279
REMARK  118  A    between atoms: _279  and  _280
REMARK  119  A    between atoms: _289  and  _291
REMARK  120  A    between atoms: _291  and  _292
REMARK  121  A    between atoms: _291  and  _294
REMARK  122  A    between atoms: _294  and  _295
REMARK  123  A    between atoms: _298  and  _300
REMARK  124  A    between atoms: _300  and  _301
REMARK  125  A    between atoms: _300  and  _303
REMARK  126  A    between atoms: _303  and  _304
REMARK  127  A    between atoms: _307  and  _309
REMARK  128  A    between atoms: _309  and  _310
REMARK  129  A    between atoms: _309  and  _312
REMARK  130  A    between atoms: _312  and  _313
REMARK  131  A    between atoms: _316  and  _318
REMARK  132  A    between atoms: _318  and  _319
REMARK  133  A    between atoms: _318  and  _321
REMARK  134  A    between atoms: _321  and  _322
REMARK  135  A    between atoms: _325  and  _327
REMARK  136  A    between atoms: _327  and  _328
REMARK  137  A    between atoms: _330  and  _332
REMARK  138  A    between atoms: _332  and  _333
REMARK  139  A    between atoms: _336  and  _338
REMARK  140  A    between atoms: _338  and  _339
REMARK  141  A    between atoms: _338  and  _341
REMARK  142  A    between atoms: _341  and  _342
REMARK  143  A    between atoms: _345  and  _347
REMARK  144  A    between atoms: _347  and  _348
REMARK  145  A    between atoms: _347  and  _350
REMARK  146  A    between atoms: _350  and  _351
REMARK  147  A    between atoms: _354  and  _356
REMARK  148  A    between atoms: _356  and  _357
REMARK  149  A    between atoms: _356  and  _359
REMARK  150  A    between atoms: _359  and  _360
REMARK  151  A    between atoms: _363  and  _365
REMARK  152  A    between atoms: _365  and  _366
REMARK  153  A    between atoms: _365  and  _368
REMARK  154  A    between atoms: _371  and  _373
REMARK  155  A    between atoms: _373  and  _374
REMARK  156  A    between atoms: _373  and  _376
REMARK  157  A    between atoms: _376  and  _377
REMARK  158  A    between atoms: _377  and  _378
REMARK  159  A    between atoms: _378  and  _379
REMARK  160  A    between atoms: _379  and  _380
REMARK  161  A    between atoms: _384  and  _386
REMARK  162  A    between atoms: _386  and  _387
REMARK  163  A    between atoms: _386  and  _389
REMARK  164  A    between atoms: _389  and  _390
REMARK  165  A    between atoms: _390  and  _391
REMARK  166  A    between atoms: _393  and  _395
REMARK  167  A    between atoms: _395  and  _396
REMARK  168  A    between atoms: _395  and  _398
REMARK  169  A    between atoms: _398  and  _399
REMARK  170  A    between atoms: _402  and  _404
REMARK  171  A    between atoms: _404  and  _405
REMARK  172  A    between atoms: _407  and  _409
REMARK  173  A    between atoms: _409  and  _410
REMARK  174  A    between atoms: _412  and  _414
REMARK  175  A    between atoms: _414  and  _415
REMARK  176  A    between atoms: _414  and  _417
REMARK  177  A    between atoms: _417  and  _418
REMARK  178  A    between atoms: _421  and  _423
REMARK  179  A    between atoms: _423  and  _424
REMARK  180  A    between atoms: _426  and  _428
REMARK  181  A    between atoms: _428  and  _429
REMARK  182  A    between atoms: _431  and  _433
REMARK  183  A    between atoms: _433  and  _434
REMARK  184  A    between atoms: _433  and  _436
REMARK  185  A    between atoms: _436  and  _437
REMARK  186  A    between atoms: _443  and  _445
REMARK  187  A    between atoms: _445  and  _446
REMARK  188  A    between atoms: _445  and  _448
REMARK  189  A    between atoms: _448  and  _449
REMARK  190  A    between atoms: _452  and  _454
REMARK  191  A    between atoms: _454  and  _455
REMARK  192  A    between atoms: _454  and  _457
REMARK  193  A    between atoms: _457  and  _458
REMARK  194  A    between atoms: _461  and  _463
REMARK  195  A    between atoms: _463  and  _464
REMARK  196  A    between atoms: _463  and  _466
REMARK  197  A    between atoms: _466  and  _467
REMARK  198  A    between atoms: _471  and  _472
REMARK  199  A    between atoms: _477  and  _479
REMARK  200  A    between atoms: _479  and  _480
REMARK  201  A    between atoms: _479  and  _482
REMARK  202  A    between atoms: _485  and  _487
REMARK  203  A    between atoms: _487  and  _488
REMARK  204  A    between atoms: _487  and  _490
REMARK  205  A    between atoms: _490  and  _491
REMARK  206  A    between atoms: _496  and  _498
REMARK  207  A    between atoms: _498  and  _499
REMARK  208  A    between atoms: _498  and  _501
REMARK  209  A    between atoms: _501  and  _502
REMARK  210  A    between atoms: _505  and  _507
REMARK  211  A    between atoms: _507  and  _508
REMARK  212  A    between atoms: _507  and  _510
REMARK  213  A    between atoms: _510  and  _511
REMARK  214  A    between atoms: _514  and  _516
REMARK  215  A    between atoms: _516  and  _517
REMARK  216  A    between atoms: _519  and  _521
REMARK  217  A    between atoms: _521  and  _522
REMARK  218  A    between atoms: _521  and  _524
REMARK  219  A    between atoms: _524  and  _525
REMARK  220  A    between atoms: _525  and  _526
REMARK  221  A    between atoms: _526  and  _527
REMARK  222  A    between atoms: _536  and  _538
REMARK  223  A    between atoms: _538  and  _539
REMARK  224  A    between atoms: _538  and  _541
REMARK  225  A    between atoms: _541  and  _542
REMARK                            x       y       z     vdW  Elec       q    Type
REMARK                         _______ _______ _______ _____ _____    ______ ____
ROOT
ATOM      1  O   HOH     1      24.843  23.820  19.937  0.00  0.00    +0.000 OA
ENDROOT
TORSDOF 0
REMARK  Name = ../refined-set-2016/2i4u/2i4u_pocket.pdb
REMARK  225 active torsions:
REMARK  status: ('A' for Active; 'I' for Inactive)
REMARK    1  A    between atoms: _1  and  _3
REMARK    2  A    between atoms: _3  and  _4
REMARK    3  A    between atoms: _3  and  _6
REMARK    4  A    between atoms: _6  and  _7
REMARK    5  A    between atoms: _7  and  _8
REMARK    6  A    between atoms: _8  and  _9
REMARK    7  A    between atoms: _18  and  _20
REMARK    8  A    between atoms: _20  and  _21
REMARK    9  A    between atoms: _20  and  _23
REMARK   10  A    between atoms: _23  and  _24
REMARK   11  A    between atoms: _27  and  _29
REMARK   12  A    between atoms: _29  and  _30
REMARK   13  A    between atoms: _29  and  _32
REMARK   14  A    between atoms: _32  and  _33
REMARK   15  A    between atoms: _36  and  _38
REMARK   16  A    between atoms: _38  and  _39
REMARK   17  A    between atoms: _38  and  _41
REMARK   18  A    between atoms: _41  and  _42
REMARK   19  A    between atoms: _45  and  _47
REMARK   20  A    between atoms: _47  and  _48
REMARK   21  A    between atoms: _47  and  _50
REMARK   22  A    between atoms: _50  and  _51
REMARK   23  A    between atoms: _54  and  _56
REMARK   24  A    between atoms: _56  and  _57
REMARK   25  A    between atoms: _59  and  _61
REMARK   26  A    between atoms: _61  and  _62
REMARK   27  A    between atoms: _65  and  _67
REMARK   28  A    between atoms: _67  and  _68
REMARK   29  A    between atoms: _67  and  _70
REMARK   30  A    between atoms: _70  and  _71
REMARK   31  A    between atoms: _74  and  _76
REMARK   32  A    between atoms: _76  and  _77
REMARK   33  A    between atoms: _76  and  _79
REMARK   34  A    between atoms: _79  and  _80
REMARK   35  A    between atoms: _83  and  _85
REMARK   36  A    between atoms: _85  and  _86
REMARK   37  A    between atoms: _85  and  _88
REMARK   38  A    between atoms: _88  and  _89
REMARK   39  A    between atoms: _92  and  _94
REMARK   40  A    between atoms: _94  and  _95
REMARK   41  A    between atoms: _94  and  _97
REMARK   42  A    between atoms: _100  and  _102
REMARK   43  A    between atoms: _102  and  _103
REMARK   44  A    between atoms: _102  and  _105
REMARK   45  A    between atoms: _105  and  _106
REMARK   46  A    between atoms: _106  and  _107
REMARK   47  A    between atoms: _107  and  _108
REMARK   48  A    between atoms: _108  and  _109
REMARK   49  A    between atoms: _113  and  _115
REMARK   50  A    between atoms: _115  and  _116
REMARK   51  A    between atoms: _115  and  _118
REMARK   52  A    between atoms: _118  and  _119
REMARK   53  A    between atoms: _119  and  _120
REMARK   54  A    between atoms: _122  and  _124
REMARK   55  A    between atoms: _124  and  _125
REMARK   56  A    between atoms: _124  and  _127
REMARK   57  A    between atoms: _127  and  _128
REMARK   58  A    between atoms: _131  and  _133
REMARK   59  A    between atoms: _133  and  _134
REMARK   60  A    between atoms: _136  and  _138
REMARK   61  A    between atoms: _138  and  _139
REMARK   62  A    between atoms: _141  and  _143
REMARK   63  A    between atoms: _143  and  _144
REMARK   64  A    between atoms: _143  and  _146
REMARK   65  A    between atoms: _146  and  _147
REMARK   66  A    between atoms: _150  and  _152
REMARK   67  A    between atoms: _152  and  _153
REMARK   68  A    between atoms: _155  and  _157
REMARK   69  A    between atoms: _157  and  _158
REMARK   70  A    between atoms: _160  and  _162
REMARK   71  A    between atoms: _162  and  _163
REMARK   72  A    between atoms: _162  and  _165
REMARK   73  A    between atoms: _165  and  _166
REMARK   74  A    between atoms: _169  and  _171
REMARK   75  A    between atoms: _171  and  _172
REMARK   76  A    between atoms: _171  and  _174
REMARK   77  A    between atoms: _177  and  _179
REMARK   78  A    between atoms: _179  and  _180
REMARK   79  A    between atoms: _179  and  _182
REMARK   80  A    between atoms: _182  and  _183
REMARK   81  A    between atoms: _186  and  _188
REMARK   82  A    between atoms: _188  and  _189
REMARK   83  A    between atoms: _188  and  _191
REMARK   84  A    between atoms: _191  and  _192
REMARK   85  A    between atoms: _196  and  _197
REMARK   86  A    between atoms: _202  and  _204
REMARK   87  A    between atoms: _204  and  _205
REMARK   88  A    between atoms: _204  and  _207
REMARK   89  A    between atoms: _210  and  _212
REMARK   90  A    between atoms: _212  and  _213
REMARK   91  A    between atoms: _212  and  _215
REMARK   92  A    between atoms: _215  and  _216
REMARK   93  A    between atoms: _221  and  _223
REMARK   94  A    between atoms: _223  and  _224
REMARK   95  A    between atoms: _223  and  _226
REMARK   96  A    between atoms: _226  and  _227
REMARK   97  A    between atoms: _230  and  _232
REMARK   98  A    between atoms: _232  and  _233
REMARK   99  A    between atoms: _232  and  _235
REMARK  100  A    between atoms: _235  and  _236
REMARK  101  A    between atoms: _239  and  _241
REMARK  102  A    between atoms: _241  and  _242
REMARK  103  A    between atoms: _244  and  _246
REMARK  104  A    between atoms: _246  and  _247
REMARK  105  A    between atoms: _246  and  _249
REMARK  106  A    between atoms: _249  and  _250
REMARK  107  A    between atoms: _250  and  _251
REMARK  108  A    between atoms: _251  and  _252
REMARK  109  A    between atoms: _261  and  _263
REMARK  110  A    between atoms: _263  and  _264
REMARK  111  A    between atoms: _263  and  _266
REMARK  112  A    between atoms: _266  and  _267
REMARK  113  A    between atoms: _272  and  _274
REMARK  114  A    between atoms: _274  and  _275
REMARK  115  A    between atoms: _274  and  _277
REMARK  116  A    between atoms: _277  and  _278
REMARK  117  A    between atoms: _278  and  _279
REMARK  118  A    between atoms: _279  and  _280
REMARK  119  A    between atoms: _289  and  _291
REMARK  120  A    between atoms: _291  and  _292
REMARK  121  A    between atoms: _291  and  _294
REMARK  122  A    between atoms: _294  and  _295
REMARK  123  A    between atoms: _298  and  _300
REMARK  124  A    between atoms: _300  and  _301
REMARK  125  A    between atoms: _300  and  _303
REMARK  126  A    between atoms: _303  and  _304
REMARK  127  A    between atoms: _307  and  _309
REMARK  128  A    between atoms: _309  and  _310
REMARK  129  A    between atoms: _309  and  _312
REMARK  130  A    between atoms: _312  and  _313
REMARK  131  A    between atoms: _316  and  _318
REMARK  132  A    between atoms: _318  and  _319
REMARK  133  A    between atoms: _318  and  _321
REMARK  134  A    between atoms: _321  and  _322
REMARK  135  A    between atoms: _325  and  _327
REMARK  136  A    between atoms: _327  and  _328
REMARK  137  A    between atoms: _330  and  _332
REMARK  138  A    between atoms: _332  and  _333
REMARK  139  A    between atoms: _336  and  _338
REMARK  140  A    between atoms: _338  and  _339
REMARK  141  A    between atoms: _338  and  _341
REMARK  142  A    between atoms: _341  and  _342
REMARK  143  A    between atoms: _345  and  _347
REMARK  144  A    between atoms: _347  and  _348
REMARK  145  A    between atoms: _347  and  _350
REMARK  146  A    between atoms: _350  and  _351
REMARK  147  A    between atoms: _354  and  _356
REMARK  148  A    between atoms: _356  and  _357
REMARK  149  A    between atoms: _356  and  _359
REMARK  150  A    between atoms: _359  and  _360
REMARK  151  A    between atoms: _363  and  _365
REMARK  152  A    between atoms: _365  and  _366
REMARK  153  A    between atoms: _365  and  _368
REMARK  154  A    between atoms: _371  and  _373
REMARK  155  A    between atoms: _373  and  _374
REMARK  156  A    between atoms: _373  and  _376
REMARK  157  A    between atoms: _376  and  _377
REMARK  158  A    between atoms: _377  and  _378
REMARK  159  A    between atoms: _378  and  _379
REMARK  160  A    between atoms: _379  and  _380
REMARK  161  A    between atoms: _384  and  _386
REMARK  162  A    between atoms: _386  and  _387
REMARK  163  A    between atoms: _386  and  _389
REMARK  164  A    between atoms: _389  and  _390
REMARK  165  A    between atoms: _390  and  _391
REMARK  166  A    between atoms: _393  and  _395
REMARK  167  A    between atoms: _395  and  _396
REMARK  168  A    between atoms: _395  and  _398
REMARK  169  A    between atoms: _398  and  _399
REMARK  170  A    between atoms: _402  and  _404
REMARK  171  A    between atoms: _404  and  _405
REMARK  172  A    between atoms: _407  and  _409
REMARK  173  A    between atoms: _409  and  _410
REMARK  174  A    between atoms: _412  and  _414
REMARK  175  A    between atoms: _414  and  _415
REMARK  176  A    between atoms: _414  and  _417
REMARK  177  A    between atoms: _417  and  _418
REMARK  178  A    between atoms: _421  and  _423
REMARK  179  A    between atoms: _423  and  _424
REMARK  180  A    between atoms: _426  and  _428
REMARK  181  A    between atoms: _428  and  _429
REMARK  182  A    between atoms: _431  and  _433
REMARK  183  A    between atoms: _433  and  _434
REMARK  184  A    between atoms: _433  and  _436
REMARK  185  A    between atoms: _436  and  _437
REMARK  186  A    between atoms: _443  and  _445
REMARK  187  A    between atoms: _445  and  _446
REMARK  188  A    between atoms: _445  and  _448
REMARK  189  A    between atoms: _448  and  _449
REMARK  190  A    between atoms: _452  and  _454
REMARK  191  A    between atoms: _454  and  _455
REMARK  192  A    between atoms: _454  and  _457
REMARK  193  A    between atoms: _457  and  _458
REMARK  194  A    between atoms: _461  and  _463
REMARK  195  A    between atoms: _463  and  _464
REMARK  196  A    between atoms: _463  and  _466
REMARK  197  A    between atoms: _466  and  _467
REMARK  198  A    between atoms: _471  and  _472
REMARK  199  A    between atoms: _477  and  _479
REMARK  200  A    between atoms: _479  and  _480
REMARK  201  A    between atoms: _479  and  _482
REMARK  202  A    between atoms: _485  and  _487
REMARK  203  A    between atoms: _487  and  _488
REMARK  204  A    between atoms: _487  and  _490
REMARK  205  A    between atoms: _490  and  _491
REMARK  206  A    between atoms: _496  and  _498
REMARK  207  A    between atoms: _498  and  _499
REMARK  208  A    between atoms: _498  and  _501
REMARK  209  A    between atoms: _501  and  _502
REMARK  210  A    between atoms: _505  and  _507
REMARK  211  A    between atoms: _507  and  _508
REMARK  212  A    between atoms: _507  and  _510
REMARK  213  A    between atoms: _510  and  _511
REMARK  214  A    between atoms: _514  and  _516
REMARK  215  A    between atoms: _516  and  _517
REMARK  216  A    between atoms: _519  and  _521
REMARK  217  A    between atoms: _521  and  _522
REMARK  218  A    between atoms: _521  and  _524
REMARK  219  A    between atoms: _524  and  _525
REMARK  220  A    between atoms: _525  and  _526
REMARK  221  A    between atoms: _526  and  _527
REMARK  222  A    between atoms: _536  and  _538
REMARK  223  A    between atoms: _538  and  _539
REMARK  224  A    between atoms: _538  and  _541
REMARK  225  A    between atoms: _541  and  _542
REMARK                            x       y       z     vdW  Elec       q    Type
REMARK                         _______ _______ _______ _____ _____    ______ ____
ROOT
ATOM      1  O   HOH     1      22.977  35.047  18.570  0.00  0.00    +0.000 OA
ENDROOT
TORSDOF 0
REMARK  Name = ../refined-set-2016/2i4u/2i4u_pocket.pdb
REMARK  225 active torsions:
REMARK  status: ('A' for Active; 'I' for Inactive)
REMARK    1  A    between atoms: _1  and  _3
REMARK    2  A    between atoms: _3  and  _4
REMARK    3  A    between atoms: _3  and  _6
REMARK    4  A    between atoms: _6  and  _7
REMARK    5  A    between atoms: _7  and  _8
REMARK    6  A    between atoms: _8  and  _9
REMARK    7  A    between atoms: _18  and  _20
REMARK    8  A    between atoms: _20  and  _21
REMARK    9  A    between atoms: _20  and  _23
REMARK   10  A    between atoms: _23  and  _24
REMARK   11  A    between atoms: _27  and  _29
REMARK   12  A    between atoms: _29  and  _30
REMARK   13  A    between atoms: _29  and  _32
REMARK   14  A    between atoms: _32  and  _33
REMARK   15  A    between atoms: _36  and  _38
REMARK   16  A    between atoms: _38  and  _39
REMARK   17  A    between atoms: _38  and  _41
REMARK   18  A    between atoms: _41  and  _42
REMARK   19  A    between atoms: _45  and  _47
REMARK   20  A    between atoms: _47  and  _48
REMARK   21  A    between atoms: _47  and  _50
REMARK   22  A    between atoms: _50  and  _51
REMARK   23  A    between atoms: _54  and  _56
REMARK   24  A    between atoms: _56  and  _57
REMARK   25  A    between atoms: _59  and  _61
REMARK   26  A    between atoms: _61  and  _62
REMARK   27  A    between atoms: _65  and  _67
REMARK   28  A    between atoms: _67  and  _68
REMARK   29  A    between atoms: _67  and  _70
REMARK   30  A    between atoms: _70  and  _71
REMARK   31  A    between atoms: _74  and  _76
REMARK   32  A    between atoms: _76  and  _77
REMARK   33  A    between atoms: _76  and  _79
REMARK   34  A    between atoms: _79  and  _80
REMARK   35  A    between atoms: _83  and  _85
REMARK   36  A    between atoms: _85  and  _86
REMARK   37  A    between atoms: _85  and  _88
REMARK   38  A    between atoms: _88  and  _89
REMARK   39  A    between atoms: _92  and  _94
REMARK   40  A    between atoms: _94  and  _95
REMARK   41  A    between atoms: _94  and  _97
REMARK   42  A    between atoms: _100  and  _102
REMARK   43  A    between atoms: _102  and  _103
REMARK   44  A    between atoms: _102  and  _105
REMARK   45  A    between atoms: _105  and  _106
REMARK   46  A    between atoms: _106  and  _107
REMARK   47  A    between atoms: _107  and  _108
REMARK   48  A    between atoms: _108  and  _109
REMARK   49  A    between atoms: _113  and  _115
REMARK   50  A    between atoms: _115  and  _116
REMARK   51  A    between atoms: _115  and  _118
REMARK   52  A    between atoms: _118  and  _119
REMARK   53  A    between atoms: _119  and  _120
REMARK   54  A    between atoms: _122  and  _124
REMARK   55  A    between atoms: _124  and  _125
REMARK   56  A    between atoms: _124  and  _127
REMARK   57  A    between atoms: _127  and  _128
REMARK   58  A    between atoms: _131  and  _133
REMARK   59  A    between atoms: _133  and  _134
REMARK   60  A    between atoms: _136  and  _138
REMARK   61  A    between atoms: _138  and  _139
REMARK   62  A    between atoms: _141  and  _143
REMARK   63  A    between atoms: _143  and  _144
REMARK   64  A    between atoms: _143  and  _146
REMARK   65  A    between atoms: _146  and  _147
REMARK   66  A    between atoms: _150  and  _152
REMARK   67  A    between atoms: _152  and  _153
REMARK   68  A    between atoms: _155  and  _157
REMARK   69  A    between atoms: _157  and  _158
REMARK   70  A    between atoms: _160  and  _162
REMARK   71  A    between atoms: _162  and  _163
REMARK   72  A    between atoms: _162  and  _165
REMARK   73  A    between atoms: _165  and  _166
REMARK   74  A    between atoms: _169  and  _171
REMARK   75  A    between atoms: _171  and  _172
REMARK   76  A    between atoms: _171  and  _174
REMARK   77  A    between atoms: _177  and  _179
REMARK   78  A    between atoms: _179  and  _180
REMARK   79  A    between atoms: _179  and  _182
REMARK   80  A    between atoms: _182  and  _183
REMARK   81  A    between atoms: _186  and  _188
REMARK   82  A    between atoms: _188  and  _189
REMARK   83  A    between atoms: _188  and  _191
REMARK   84  A    between atoms: _191  and  _192
REMARK   85  A    between atoms: _196  and  _197
REMARK   86  A    between atoms: _202  and  _204
REMARK   87  A    between atoms: _204  and  _205
REMARK   88  A    between atoms: _204  and  _207
REMARK   89  A    between atoms: _210  and  _212
REMARK   90  A    between atoms: _212  and  _213
REMARK   91  A    between atoms: _212  and  _215
REMARK   92  A    between atoms: _215  and  _216
REMARK   93  A    between atoms: _221  and  _223
REMARK   94  A    between atoms: _223  and  _224
REMARK   95  A    between atoms: _223  and  _226
REMARK   96  A    between atoms: _226  and  _227
REMARK   97  A    between atoms: _230  and  _232
REMARK   98  A    between atoms: _232  and  _233
REMARK   99  A    between atoms: _232  and  _235
REMARK  100  A    between atoms: _235  and  _236
REMARK  101  A    between atoms: _239  and  _241
REMARK  102  A    between atoms: _241  and  _242
REMARK  103  A    between atoms: _244  and  _246
REMARK  104  A    between atoms: _246  and  _247
REMARK  105  A    between atoms: _246  and  _249
REMARK  106  A    between atoms: _249  and  _250
REMARK  107  A    between atoms: _250  and  _251
REMARK  108  A    between atoms: _251  and  _252
REMARK  109  A    between atoms: _261  and  _263
REMARK  110  A    between atoms: _263  and  _264
REMARK  111  A    between atoms: _263  and  _266
REMARK  112  A    between atoms: _266  and  _267
REMARK  113  A    between atoms: _272  and  _274
REMARK  114  A    between atoms: _274  and  _275
REMARK  115  A    between atoms: _274  and  _277
REMARK  116  A    between atoms: _277  and  _278
REMARK  117  A    between atoms: _278  and  _279
REMARK  118  A    between atoms: _279  and  _280
REMARK  119  A    between atoms: _289  and  _291
REMARK  120  A    between atoms: _291  and  _292
REMARK  121  A    between atoms: _291  and  _294
REMARK  122  A    between atoms: _294  and  _295
REMARK  123  A    between atoms: _298  and  _300
REMARK  124  A    between atoms: _300  and  _301
REMARK  125  A    between atoms: _300  and  _303
REMARK  126  A    between atoms: _303  and  _304
REMARK  127  A    between atoms: _307  and  _309
REMARK  128  A    between atoms: _309  and  _310
REMARK  129  A    between atoms: _309  and  _312
REMARK  130  A    between atoms: _312  and  _313
REMARK  131  A    between atoms: _316  and  _318
REMARK  132  A    between atoms: _318  and  _319
REMARK  133  A    between atoms: _318  and  _321
REMARK  134  A    between atoms: _321  and  _322
REMARK  135  A    between atoms: _325  and  _327
REMARK  136  A    between atoms: _327  and  _328
REMARK  137  A    between atoms: _330  and  _332
REMARK  138  A    between atoms: _332  and  _333
REMARK  139  A    between atoms: _336  and  _338
REMARK  140  A    between atoms: _338  and  _339
REMARK  141  A    between atoms: _338  and  _341
REMARK  142  A    between atoms: _341  and  _342
REMARK  143  A    between atoms: _345  and  _347
REMARK  144  A    between atoms: _347  and  _348
REMARK  145  A    between atoms: _347  and  _350
REMARK  146  A    between atoms: _350  and  _351
REMARK  147  A    between atoms: _354  and  _356
REMARK  148  A    between atoms: _356  and  _357
REMARK  149  A    between atoms: _356  and  _359
REMARK  150  A    between atoms: _359  and  _360
REMARK  151  A    between atoms: _363  and  _365
REMARK  152  A    between atoms: _365  and  _366
REMARK  153  A    between atoms: _365  and  _368
REMARK  154  A    between atoms: _371  and  _373
REMARK  155  A    between atoms: _373  and  _374
REMARK  156  A    between atoms: _373  and  _376
REMARK  157  A    between atoms: _376  and  _377
REMARK  158  A    between atoms: _377  and  _378
REMARK  159  A    between atoms: _378  and  _379
REMARK  160  A    between atoms: _379  and  _380
REMARK  161  A    between atoms: _384  and  _386
REMARK  162  A    between atoms: _386  and  _387
REMARK  163  A    between atoms: _386  and  _389
REMARK  164  A    between atoms: _389  and  _390
REMARK  165  A    between atoms: _390  and  _391
REMARK  166  A    between atoms: _393  and  _395
REMARK  167  A    between atoms: _395  and  _396
REMARK  168  A    between atoms: _395  and  _398
REMARK  169  A    between atoms: _398  and  _399
REMARK  170  A    between atoms: _402  and  _404
REMARK  171  A    between atoms: _404  and  _405
REMARK  172  A    between atoms: _407  and  _409
REMARK  173  A    between atoms: _409  and  _410
REMARK  174  A    between atoms: _412  and  _414
REMARK  175  A    between atoms: _414  and  _415
REMARK  176  A    between atoms: _414  and  _417
REMARK  177  A    between atoms: _417  and  _418
REMARK  178  A    between atoms: _421  and  _423
REMARK  179  A    between atoms: _423  and  _424
REMARK  180  A    between atoms: _426  and  _428
REMARK  181  A    between atoms: _428  and  _429
REMARK  182  A    between atoms: _431  and  _433
REMARK  183  A    between atoms: _433  and  _434
REMARK  184  A    between atoms: _433  and  _436
REMARK  185  A    between atoms: _436  and  _437
REMARK  186  A    between atoms: _443  and  _445
REMARK  187  A    between atoms: _445  and  _446
REMARK  188  A    between atoms: _445  and  _448
REMARK  189  A    between atoms: _448  and  _449
REMARK  190  A    between atoms: _452  and  _454
REMARK  191  A    between atoms: _454  and  _455
REMARK  192  A    between atoms: _454  and  _457
REMARK  193  A    between atoms: _457  and  _458
REMARK  194  A    between atoms: _461  and  _463
REMARK  195  A    between atoms: _463  and  _464
REMARK  196  A    between atoms: _463  and  _466
REMARK  197  A    between atoms: _466  and  _467
REMARK  198  A    between atoms: _471  and  _472
REMARK  199  A    between atoms: _477  and  _479
REMARK  200  A    between atoms: _479  and  _480
REMARK  201  A    between atoms: _479  and  _482
REMARK  202  A    between atoms: _485  and  _487
REMARK  203  A    between atoms: _487  and  _488
REMARK  204  A    between atoms: _487  and  _490
REMARK  205  A    between atoms: _490  and  _491
REMARK  206  A    between atoms: _496  and  _498
REMARK  207  A    between atoms: _498  and  _499
REMARK  208  A    between atoms: _498  and  _501
REMARK  209  A    between atoms: _501  and  _502
REMARK  210  A    between atoms: _505  and  _507
REMARK  211  A    between atoms: _507  and  _508
REMARK  212  A    between atoms: _507  and  _510
REMARK  213  A    between atoms: _510  and  _511
REMARK  214  A    between atoms: _514  and  _516
REMARK  215  A    between atoms: _516  and  _517
REMARK  216  A    between atoms: _519  and  _521
REMARK  217  A    between atoms: _521  and  _522
REMARK  218  A    between atoms: _521  and  _524
REMARK  219  A    between atoms: _524  and  _525
REMARK  220  A    between atoms: _525  and  _526
REMARK  221  A    between atoms: _526  and  _527
REMARK  222  A    between atoms: _536  and  _538
REMARK  223  A    between atoms: _538  and  _539
REMARK  224  A    between atoms: _538  and  _541
REMARK  225  A    between atoms: _541  and  _542
REMARK                            x       y       z     vdW  Elec       q    Type
REMARK                         _______ _______ _______ _____ _____    ______ ____
ROOT
ATOM      1  O   HOH     1       9.131  18.759  13.669  0.00  0.00    +0.000 OA
ENDROOT
TORSDOF 0
REMARK  Name = ../refined-set-2016/2i4u/2i4u_pocket.pdb
REMARK  225 active torsions:
REMARK  status: ('A' for Active; 'I' for Inactive)
REMARK    1  A    between atoms: _1  and  _3
REMARK    2  A    between atoms: _3  and  _4
REMARK    3  A    between atoms: _3  and  _6
REMARK    4  A    between atoms: _6  and  _7
REMARK    5  A    between atoms: _7  and  _8
REMARK    6  A    between atoms: _8  and  _9
REMARK    7  A    between atoms: _18  and  _20
REMARK    8  A    between atoms: _20  and  _21
REMARK    9  A    between atoms: _20  and  _23
REMARK   10  A    between atoms: _23  and  _24
REMARK   11  A    between atoms: _27  and  _29
REMARK   12  A    between atoms: _29  and  _30
REMARK   13  A    between atoms: _29  and  _32
REMARK   14  A    between atoms: _32  and  _33
REMARK   15  A    between atoms: _36  and  _38
REMARK   16  A    between atoms: _38  and  _39
REMARK   17  A    between atoms: _38  and  _41
REMARK   18  A    between atoms: _41  and  _42
REMARK   19  A    between atoms: _45  and  _47
REMARK   20  A    between atoms: _47  and  _48
REMARK   21  A    between atoms: _47  and  _50
REMARK   22  A    between atoms: _50  and  _51
REMARK   23  A    between atoms: _54  and  _56
REMARK   24  A    between atoms: _56  and  _57
REMARK   25  A    between atoms: _59  and  _61
REMARK   26  A    between atoms: _61  and  _62
REMARK   27  A    between atoms: _65  and  _67
REMARK   28  A    between atoms: _67  and  _68
REMARK   29  A    between atoms: _67  and  _70
REMARK   30  A    between atoms: _70  and  _71
REMARK   31  A    between atoms: _74  and  _76
REMARK   32  A    between atoms: _76  and  _77
REMARK   33  A    between atoms: _76  and  _79
REMARK   34  A    between atoms: _79  and  _80
REMARK   35  A    between atoms: _83  and  _85
REMARK   36  A    between atoms: _85  and  _86
REMARK   37  A    between atoms: _85  and  _88
REMARK   38  A    between atoms: _88  and  _89
REMARK   39  A    between atoms: _92  and  _94
REMARK   40  A    between atoms: _94  and  _95
REMARK   41  A    between atoms: _94  and  _97
REMARK   42  A    between atoms: _100  and  _102
REMARK   43  A    between atoms: _102  and  _103
REMARK   44  A    between atoms: _102  and  _105
REMARK   45  A    between atoms: _105  and  _106
REMARK   46  A    between atoms: _106  and  _107
REMARK   47  A    between atoms: _107  and  _108
REMARK   48  A    between atoms: _108  and  _109
REMARK   49  A    between atoms: _113  and  _115
REMARK   50  A    between atoms: _115  and  _116
REMARK   51  A    between atoms: _115  and  _118
REMARK   52  A    between atoms: _118  and  _119
REMARK   53  A    between atoms: _119  and  _120
REMARK   54  A    between atoms: _122  and  _124
REMARK   55  A    between atoms: _124  and  _125
REMARK   56  A    between atoms: _124  and  _127
REMARK   57  A    between atoms: _127  and  _128
REMARK   58  A    between atoms: _131  and  _133
REMARK   59  A    between atoms: _133  and  _134
REMARK   60  A    between atoms: _136  and  _138
REMARK   61  A    between atoms: _138  and  _139
REMARK   62  A    between atoms: _141  and  _143
REMARK   63  A    between atoms: _143  and  _144
REMARK   64  A    between atoms: _143  and  _146
REMARK   65  A    between atoms: _146  and  _147
REMARK   66  A    between atoms: _150  and  _152
REMARK   67  A    between atoms: _152  and  _153
REMARK   68  A    between atoms: _155  and  _157
REMARK   69  A    between atoms: _157  and  _158
REMARK   70  A    between atoms: _160  and  _162
REMARK   71  A    between atoms: _162  and  _163
REMARK   72  A    between atoms: _162  and  _165
REMARK   73  A    between atoms: _165  and  _166
REMARK   74  A    between atoms: _169  and  _171
REMARK   75  A    between atoms: _171  and  _172
REMARK   76  A    between atoms: _171  and  _174
REMARK   77  A    between atoms: _177  and  _179
REMARK   78  A    between atoms: _179  and  _180
REMARK   79  A    between atoms: _179  and  _182
REMARK   80  A    between atoms: _182  and  _183
REMARK   81  A    between atoms: _186  and  _188
REMARK   82  A    between atoms: _188  and  _189
REMARK   83  A    between atoms: _188  and  _191
REMARK   84  A    between atoms: _191  and  _192
REMARK   85  A    between atoms: _196  and  _197
REMARK   86  A    between atoms: _202  and  _204
REMARK   87  A    between atoms: _204  and  _205
REMARK   88  A    between atoms: _204  and  _207
REMARK   89  A    between atoms: _210  and  _212
REMARK   90  A    between atoms: _212  and  _213
REMARK   91  A    between atoms: _212  and  _215
REMARK   92  A    between atoms: _215  and  _216
REMARK   93  A    between atoms: _221  and  _223
REMARK   94  A    between atoms: _223  and  _224
REMARK   95  A    between atoms: _223  and  _226
REMARK   96  A    between atoms: _226  and  _227
REMARK   97  A    between atoms: _230  and  _232
REMARK   98  A    between atoms: _232  and  _233
REMARK   99  A    between atoms: _232  and  _235
REMARK  100  A    between atoms: _235  and  _236
REMARK  101  A    between atoms: _239  and  _241
REMARK  102  A    between atoms: _241  and  _242
REMARK  103  A    between atoms: _244  and  _246
REMARK  104  A    between atoms: _246  and  _247
REMARK  105  A    between atoms: _246  and  _249
REMARK  106  A    between atoms: _249  and  _250
REMARK  107  A    between atoms: _250  and  _251
REMARK  108  A    between atoms: _251  and  _252
REMARK  109  A    between atoms: _261  and  _263
REMARK  110  A    between atoms: _263  and  _264
REMARK  111  A    between atoms: _263  and  _266
REMARK  112  A    between atoms: _266  and  _267
REMARK  113  A    between atoms: _272  and  _274
REMARK  114  A    between atoms: _274  and  _275
REMARK  115  A    between atoms: _274  and  _277
REMARK  116  A    between atoms: _277  and  _278
REMARK  117  A    between atoms: _278  and  _279
REMARK  118  A    between atoms: _279  and  _280
REMARK  119  A    between atoms: _289  and  _291
REMARK  120  A    between atoms: _291  and  _292
REMARK  121  A    between atoms: _291  and  _294
REMARK  122  A    between atoms: _294  and  _295
REMARK  123  A    between atoms: _298  and  _300
REMARK  124  A    between atoms: _300  and  _301
REMARK  125  A    between atoms: _300  and  _303
REMARK  126  A    between atoms: _303  and  _304
REMARK  127  A    between atoms: _307  and  _309
REMARK  128  A    between atoms: _309  and  _310
REMARK  129  A    between atoms: _309  and  _312
REMARK  130  A    between atoms: _312  and  _313
REMARK  131  A    between atoms: _316  and  _318
REMARK  132  A    between atoms: _318  and  _319
REMARK  133  A    between atoms: _318  and  _321
REMARK  134  A    between atoms: _321  and  _322
REMARK  135  A    between atoms: _325  and  _327
REMARK  136  A    between atoms: _327  and  _328
REMARK  137  A    between atoms: _330  and  _332
REMARK  138  A    between atoms: _332  and  _333
REMARK  139  A    between atoms: _336  and  _338
REMARK  140  A    between atoms: _338  and  _339
REMARK  141  A    between atoms: _338  and  _341
REMARK  142  A    between atoms: _341  and  _342
REMARK  143  A    between atoms: _345  and  _347
REMARK  144  A    between atoms: _347  and  _348
REMARK  145  A    between atoms: _347  and  _350
REMARK  146  A    between atoms: _350  and  _351
REMARK  147  A    between atoms: _354  and  _356
REMARK  148  A    between atoms: _356  and  _357
REMARK  149  A    between atoms: _356  and  _359
REMARK  150  A    between atoms: _359  and  _360
REMARK  151  A    between atoms: _363  and  _365
REMARK  152  A    between atoms: _365  and  _366
REMARK  153  A    between atoms: _365  and  _368
REMARK  154  A    between atoms: _371  and  _373
REMARK  155  A    between atoms: _373  and  _374
REMARK  156  A    between atoms: _373  and  _376
REMARK  157  A    between atoms: _376  and  _377
REMARK  158  A    between atoms: _377  and  _378
REMARK  159  A    between atoms: _378  and  _379
REMARK  160  A    between atoms: _379  and  _380
REMARK  161  A    between atoms: _384  and  _386
REMARK  162  A    between atoms: _386  and  _387
REMARK  163  A    between atoms: _386  and  _389
REMARK  164  A    between atoms: _389  and  _390
REMARK  165  A    between atoms: _390  and  _391
REMARK  166  A    between atoms: _393  and  _395
REMARK  167  A    between atoms: _395  and  _396
REMARK  168  A    between atoms: _395  and  _398
REMARK  169  A    between atoms: _398  and  _399
REMARK  170  A    between atoms: _402  and  _404
REMARK  171  A    between atoms: _404  and  _405
REMARK  172  A    between atoms: _407  and  _409
REMARK  173  A    between atoms: _409  and  _410
REMARK  174  A    between atoms: _412  and  _414
REMARK  175  A    between atoms: _414  and  _415
REMARK  176  A    between atoms: _414  and  _417
REMARK  177  A    between atoms: _417  and  _418
REMARK  178  A    between atoms: _421  and  _423
REMARK  179  A    between atoms: _423  and  _424
REMARK  180  A    between atoms: _426  and  _428
REMARK  181  A    between atoms: _428  and  _429
REMARK  182  A    between atoms: _431  and  _433
REMARK  183  A    between atoms: _433  and  _434
REMARK  184  A    between atoms: _433  and  _436
REMARK  185  A    between atoms: _436  and  _437
REMARK  186  A    between atoms: _443  and  _445
REMARK  187  A    between atoms: _445  and  _446
REMARK  188  A    between atoms: _445  and  _448
REMARK  189  A    between atoms: _448  and  _449
REMARK  190  A    between atoms: _452  and  _454
REMARK  191  A    between atoms: _454  and  _455
REMARK  192  A    between atoms: _454  and  _457
REMARK  193  A    between atoms: _457  and  _458
REMARK  194  A    between atoms: _461  and  _463
REMARK  195  A    between atoms: _463  and  _464
REMARK  196  A    between atoms: _463  and  _466
REMARK  197  A    between atoms: _466  and  _467
REMARK  198  A    between atoms: _471  and  _472
REMARK  199  A    between atoms: _477  and  _479
REMARK  200  A    between atoms: _479  and  _480
REMARK  201  A    between atoms: _479  and  _482
REMARK  202  A    between atoms: _485  and  _487
REMARK  203  A    between atoms: _487  and  _488
REMARK  204  A    between atoms: _487  and  _490
REMARK  205  A    between atoms: _490  and  _491
REMARK  206  A    between atoms: _496  and  _498
REMARK  207  A    between atoms: _498  and  _499
REMARK  208  A    between atoms: _498  and  _501
REMARK  209  A    between atoms: _501  and  _502
REMARK  210  A    between atoms: _505  and  _507
REMARK  211  A    between atoms: _507  and  _508
REMARK  212  A    between atoms: _507  and  _510
REMARK  213  A    between atoms: _510  and  _511
REMARK  214  A    between atoms: _514  and  _516
REMARK  215  A    between atoms: _516  and  _517
REMARK  216  A    between atoms: _519  and  _521
REMARK  217  A    between atoms: _521  and  _522
REMARK  218  A    between atoms: _521  and  _524
REMARK  219  A    between atoms: _524  and  _525
REMARK  220  A    between atoms: _525  and  _526
REMARK  221  A    between atoms: _526  and  _527
REMARK  222  A    between atoms: _536  and  _538
REMARK  223  A    between atoms: _538  and  _539
REMARK  224  A    between atoms: _538  and  _541
REMARK  225  A    between atoms: _541  and  _542
REMARK                            x       y       z     vdW  Elec       q    Type
REMARK                         _______ _______ _______ _____ _____    ______ ____
ROOT
ATOM      1  O   HOH     1       8.245  22.346  16.784  0.00  0.00    +0.000 OA
ENDROOT
TORSDOF 0
REMARK  Name = ../refined-set-2016/2i4u/2i4u_pocket.pdb
REMARK  225 active torsions:
REMARK  status: ('A' for Active; 'I' for Inactive)
REMARK    1  A    between atoms: _1  and  _3
REMARK    2  A    between atoms: _3  and  _4
REMARK    3  A    between atoms: _3  and  _6
REMARK    4  A    between atoms: _6  and  _7
REMARK    5  A    between atoms: _7  and  _8
REMARK    6  A    between atoms: _8  and  _9
REMARK    7  A    between atoms: _18  and  _20
REMARK    8  A    between atoms: _20  and  _21
REMARK    9  A    between atoms: _20  and  _23
REMARK   10  A    between atoms: _23  and  _24
REMARK   11  A    between atoms: _27  and  _29
REMARK   12  A    between atoms: _29  and  _30
REMARK   13  A    between atoms: _29  and  _32
REMARK   14  A    between atoms: _32  and  _33
REMARK   15  A    between atoms: _36  and  _38
REMARK   16  A    between atoms: _38  and  _39
REMARK   17  A    between atoms: _38  and  _41
REMARK   18  A    between atoms: _41  and  _42
REMARK   19  A    between atoms: _45  and  _47
REMARK   20  A    between atoms: _47  and  _48
REMARK   21  A    between atoms: _47  and  _50
REMARK   22  A    between atoms: _50  and  _51
REMARK   23  A    between atoms: _54  and  _56
REMARK   24  A    between atoms: _56  and  _57
REMARK   25  A    between atoms: _59  and  _61
REMARK   26  A    between atoms: _61  and  _62
REMARK   27  A    between atoms: _65  and  _67
REMARK   28  A    between atoms: _67  and  _68
REMARK   29  A    between atoms: _67  and  _70
REMARK   30  A    between atoms: _70  and  _71
REMARK   31  A    between atoms: _74  and  _76
REMARK   32  A    between atoms: _76  and  _77
REMARK   33  A    between atoms: _76  and  _79
REMARK   34  A    between atoms: _79  and  _80
REMARK   35  A    between atoms: _83  and  _85
REMARK   36  A    between atoms: _85  and  _86
REMARK   37  A    between atoms: _85  and  _88
REMARK   38  A    between atoms: _88  and  _89
REMARK   39  A    between atoms: _92  and  _94
REMARK   40  A    between atoms: _94  and  _95
REMARK   41  A    between atoms: _94  and  _97
REMARK   42  A    between atoms: _100  and  _102
REMARK   43  A    between atoms: _102  and  _103
REMARK   44  A    between atoms: _102  and  _105
REMARK   45  A    between atoms: _105  and  _106
REMARK   46  A    between atoms: _106  and  _107
REMARK   47  A    between atoms: _107  and  _108
REMARK   48  A    between atoms: _108  and  _109
REMARK   49  A    between atoms: _113  and  _115
REMARK   50  A    between atoms: _115  and  _116
REMARK   51  A    between atoms: _115  and  _118
REMARK   52  A    between atoms: _118  and  _119
REMARK   53  A    between atoms: _119  and  _120
REMARK   54  A    between atoms: _122  and  _124
REMARK   55  A    between atoms: _124  and  _125
REMARK   56  A    between atoms: _124  and  _127
REMARK   57  A    between atoms: _127  and  _128
REMARK   58  A    between atoms: _131  and  _133
REMARK   59  A    between atoms: _133  and  _134
REMARK   60  A    between atoms: _136  and  _138
REMARK   61  A    between atoms: _138  and  _139
REMARK   62  A    between atoms: _141  and  _143
REMARK   63  A    between atoms: _143  and  _144
REMARK   64  A    between atoms: _143  and  _146
REMARK   65  A    between atoms: _146  and  _147
REMARK   66  A    between atoms: _150  and  _152
REMARK   67  A    between atoms: _152  and  _153
REMARK   68  A    between atoms: _155  and  _157
REMARK   69  A    between atoms: _157  and  _158
REMARK   70  A    between atoms: _160  and  _162
REMARK   71  A    between atoms: _162  and  _163
REMARK   72  A    between atoms: _162  and  _165
REMARK   73  A    between atoms: _165  and  _166
REMARK   74  A    between atoms: _169  and  _171
REMARK   75  A    between atoms: _171  and  _172
REMARK   76  A    between atoms: _171  and  _174
REMARK   77  A    between atoms: _177  and  _179
REMARK   78  A    between atoms: _179  and  _180
REMARK   79  A    between atoms: _179  and  _182
REMARK   80  A    between atoms: _182  and  _183
REMARK   81  A    between atoms: _186  and  _188
REMARK   82  A    between atoms: _188  and  _189
REMARK   83  A    between atoms: _188  and  _191
REMARK   84  A    between atoms: _191  and  _192
REMARK   85  A    between atoms: _196  and  _197
REMARK   86  A    between atoms: _202  and  _204
REMARK   87  A    between atoms: _204  and  _205
REMARK   88  A    between atoms: _204  and  _207
REMARK   89  A    between atoms: _210  and  _212
REMARK   90  A    between atoms: _212  and  _213
REMARK   91  A    between atoms: _212  and  _215
REMARK   92  A    between atoms: _215  and  _216
REMARK   93  A    between atoms: _221  and  _223
REMARK   94  A    between atoms: _223  and  _224
REMARK   95  A    between atoms: _223  and  _226
REMARK   96  A    between atoms: _226  and  _227
REMARK   97  A    between atoms: _230  and  _232
REMARK   98  A    between atoms: _232  and  _233
REMARK   99  A    between atoms: _232  and  _235
REMARK  100  A    between atoms: _235  and  _236
REMARK  101  A    between atoms: _239  and  _241
REMARK  102  A    between atoms: _241  and  _242
REMARK  103  A    between atoms: _244  and  _246
REMARK  104  A    between atoms: _246  and  _247
REMARK  105  A    between atoms: _246  and  _249
REMARK  106  A    between atoms: _249  and  _250
REMARK  107  A    between atoms: _250  and  _251
REMARK  108  A    between atoms: _251  and  _252
REMARK  109  A    between atoms: _261  and  _263
REMARK  110  A    between atoms: _263  and  _264
REMARK  111  A    between atoms: _263  and  _266
REMARK  112  A    between atoms: _266  and  _267
REMARK  113  A    between atoms: _272  and  _274
REMARK  114  A    between atoms: _274  and  _275
REMARK  115  A    between atoms: _274  and  _277
REMARK  116  A    between atoms: _277  and  _278
REMARK  117  A    between atoms: _278  and  _279
REMARK  118  A    between atoms: _279  and  _280
REMARK  119  A    between atoms: _289  and  _291
REMARK  120  A    between atoms: _291  and  _292
REMARK  121  A    between atoms: _291  and  _294
REMARK  122  A    between atoms: _294  and  _295
REMARK  123  A    between atoms: _298  and  _300
REMARK  124  A    between atoms: _300  and  _301
REMARK  125  A    between atoms: _300  and  _303
REMARK  126  A    between atoms: _303  and  _304
REMARK  127  A    between atoms: _307  and  _309
REMARK  128  A    between atoms: _309  and  _310
REMARK  129  A    between atoms: _309  and  _312
REMARK  130  A    between atoms: _312  and  _313
REMARK  131  A    between atoms: _316  and  _318
REMARK  132  A    between atoms: _318  and  _319
REMARK  133  A    between atoms: _318  and  _321
REMARK  134  A    between atoms: _321  and  _322
REMARK  135  A    between atoms: _325  and  _327
REMARK  136  A    between atoms: _327  and  _328
REMARK  137  A    between atoms: _330  and  _332
REMARK  138  A    between atoms: _332  and  _333
REMARK  139  A    between atoms: _336  and  _338
REMARK  140  A    between atoms: _338  and  _339
REMARK  141  A    between atoms: _338  and  _341
REMARK  142  A    between atoms: _341  and  _342
REMARK  143  A    between atoms: _345  and  _347
REMARK  144  A    between atoms: _347  and  _348
REMARK  145  A    between atoms: _347  and  _350
REMARK  146  A    between atoms: _350  and  _351
REMARK  147  A    between atoms: _354  and  _356
REMARK  148  A    between atoms: _356  and  _357
REMARK  149  A    between atoms: _356  and  _359
REMARK  150  A    between atoms: _359  and  _360
REMARK  151  A    between atoms: _363  and  _365
REMARK  152  A    between atoms: _365  and  _366
REMARK  153  A    between atoms: _365  and  _368
REMARK  154  A    between atoms: _371  and  _373
REMARK  155  A    between atoms: _373  and  _374
REMARK  156  A    between atoms: _373  and  _376
REMARK  157  A    between atoms: _376  and  _377
REMARK  158  A    between atoms: _377  and  _378
REMARK  159  A    between atoms: _378  and  _379
REMARK  160  A    between atoms: _379  and  _380
REMARK  161  A    between atoms: _384  and  _386
REMARK  162  A    between atoms: _386  and  _387
REMARK  163  A    between atoms: _386  and  _389
REMARK  164  A    between atoms: _389  and  _390
REMARK  165  A    between atoms: _390  and  _391
REMARK  166  A    between atoms: _393  and  _395
REMARK  167  A    between atoms: _395  and  _396
REMARK  168  A    between atoms: _395  and  _398
REMARK  169  A    between atoms: _398  and  _399
REMARK  170  A    between atoms: _402  and  _404
REMARK  171  A    between atoms: _404  and  _405
REMARK  172  A    between atoms: _407  and  _409
REMARK  173  A    between atoms: _409  and  _410
REMARK  174  A    between atoms: _412  and  _414
REMARK  175  A    between atoms: _414  and  _415
REMARK  176  A    between atoms: _414  and  _417
REMARK  177  A    between atoms: _417  and  _418
REMARK  178  A    between atoms: _421  and  _423
REMARK  179  A    between atoms: _423  and  _424
REMARK  180  A    between atoms: _426  and  _428
REMARK  181  A    between atoms: _428  and  _429
REMARK  182  A    between atoms: _431  and  _433
REMARK  183  A    between atoms: _433  and  _434
REMARK  184  A    between atoms: _433  and  _436
REMARK  185  A    between atoms: _436  and  _437
REMARK  186  A    between atoms: _443  and  _445
REMARK  187  A    between atoms: _445  and  _446
REMARK  188  A    between atoms: _445  and  _448
REMARK  189  A    between atoms: _448  and  _449
REMARK  190  A    between atoms: _452  and  _454
REMARK  191  A    between atoms: _454  and  _455
REMARK  192  A    between atoms: _454  and  _457
REMARK  193  A    between atoms: _457  and  _458
REMARK  194  A    between atoms: _461  and  _463
REMARK  195  A    between atoms: _463  and  _464
REMARK  196  A    between atoms: _463  and  _466
REMARK  197  A    between atoms: _466  and  _467
REMARK  198  A    between atoms: _471  and  _472
REMARK  199  A    between atoms: _477  and  _479
REMARK  200  A    between atoms: _479  and  _480
REMARK  201  A    between atoms: _479  and  _482
REMARK  202  A    between atoms: _485  and  _487
REMARK  203  A    between atoms: _487  and  _488
REMARK  204  A    between atoms: _487  and  _490
REMARK  205  A    between atoms: _490  and  _491
REMARK  206  A    between atoms: _496  and  _498
REMARK  207  A    between atoms: _498  and  _499
REMARK  208  A    between atoms: _498  and  _501
REMARK  209  A    between atoms: _501  and  _502
REMARK  210  A    between atoms: _505  and  _507
REMARK  211  A    between atoms: _507  and  _508
REMARK  212  A    between atoms: _507  and  _510
REMARK  213  A    between atoms: _510  and  _511
REMARK  214  A    between atoms: _514  and  _516
REMARK  215  A    between atoms: _516  and  _517
REMARK  216  A    between atoms: _519  and  _521
REMARK  217  A    between atoms: _521  and  _522
REMARK  218  A    between atoms: _521  and  _524
REMARK  219  A    between atoms: _524  and  _525
REMARK  220  A    between atoms: _525  and  _526
REMARK  221  A    between atoms: _526  and  _527
REMARK  222  A    between atoms: _536  and  _538
REMARK  223  A    between atoms: _538  and  _539
REMARK  224  A    between atoms: _538  and  _541
REMARK  225  A    between atoms: _541  and  _542
REMARK                            x       y       z     vdW  Elec       q    Type
REMARK                         _______ _______ _______ _____ _____    ______ ____
ROOT
ATOM      1  O   HOH     1       6.738  24.236  18.247  0.00  0.00    +0.000 OA
ENDROOT
TORSDOF 0
REMARK  Name = ../refined-set-2016/2i4u/2i4u_pocket.pdb
REMARK  225 active torsions:
REMARK  status: ('A' for Active; 'I' for Inactive)
REMARK    1  A    between atoms: _1  and  _3
REMARK    2  A    between atoms: _3  and  _4
REMARK    3  A    between atoms: _3  and  _6
REMARK    4  A    between atoms: _6  and  _7
REMARK    5  A    between atoms: _7  and  _8
REMARK    6  A    between atoms: _8  and  _9
REMARK    7  A    between atoms: _18  and  _20
REMARK    8  A    between atoms: _20  and  _21
REMARK    9  A    between atoms: _20  and  _23
REMARK   10  A    between atoms: _23  and  _24
REMARK   11  A    between atoms: _27  and  _29
REMARK   12  A    between atoms: _29  and  _30
REMARK   13  A    between atoms: _29  and  _32
REMARK   14  A    between atoms: _32  and  _33
REMARK   15  A    between atoms: _36  and  _38
REMARK   16  A    between atoms: _38  and  _39
REMARK   17  A    between atoms: _38  and  _41
REMARK   18  A    between atoms: _41  and  _42
REMARK   19  A    between atoms: _45  and  _47
REMARK   20  A    between atoms: _47  and  _48
REMARK   21  A    between atoms: _47  and  _50
REMARK   22  A    between atoms: _50  and  _51
REMARK   23  A    between atoms: _54  and  _56
REMARK   24  A    between atoms: _56  and  _57
REMARK   25  A    between atoms: _59  and  _61
REMARK   26  A    between atoms: _61  and  _62
REMARK   27  A    between atoms: _65  and  _67
REMARK   28  A    between atoms: _67  and  _68
REMARK   29  A    between atoms: _67  and  _70
REMARK   30  A    between atoms: _70  and  _71
REMARK   31  A    between atoms: _74  and  _76
REMARK   32  A    between atoms: _76  and  _77
REMARK   33  A    between atoms: _76  and  _79
REMARK   34  A    between atoms: _79  and  _80
REMARK   35  A    between atoms: _83  and  _85
REMARK   36  A    between atoms: _85  and  _86
REMARK   37  A    between atoms: _85  and  _88
REMARK   38  A    between atoms: _88  and  _89
REMARK   39  A    between atoms: _92  and  _94
REMARK   40  A    between atoms: _94  and  _95
REMARK   41  A    between atoms: _94  and  _97
REMARK   42  A    between atoms: _100  and  _102
REMARK   43  A    between atoms: _102  and  _103
REMARK   44  A    between atoms: _102  and  _105
REMARK   45  A    between atoms: _105  and  _106
REMARK   46  A    between atoms: _106  and  _107
REMARK   47  A    between atoms: _107  and  _108
REMARK   48  A    between atoms: _108  and  _109
REMARK   49  A    between atoms: _113  and  _115
REMARK   50  A    between atoms: _115  and  _116
REMARK   51  A    between atoms: _115  and  _118
REMARK   52  A    between atoms: _118  and  _119
REMARK   53  A    between atoms: _119  and  _120
REMARK   54  A    between atoms: _122  and  _124
REMARK   55  A    between atoms: _124  and  _125
REMARK   56  A    between atoms: _124  and  _127
REMARK   57  A    between atoms: _127  and  _128
REMARK   58  A    between atoms: _131  and  _133
REMARK   59  A    between atoms: _133  and  _134
REMARK   60  A    between atoms: _136  and  _138
REMARK   61  A    between atoms: _138  and  _139
REMARK   62  A    between atoms: _141  and  _143
REMARK   63  A    between atoms: _143  and  _144
REMARK   64  A    between atoms: _143  and  _146
REMARK   65  A    between atoms: _146  and  _147
REMARK   66  A    between atoms: _150  and  _152
REMARK   67  A    between atoms: _152  and  _153
REMARK   68  A    between atoms: _155  and  _157
REMARK   69  A    between atoms: _157  and  _158
REMARK   70  A    between atoms: _160  and  _162
REMARK   71  A    between atoms: _162  and  _163
REMARK   72  A    between atoms: _162  and  _165
REMARK   73  A    between atoms: _165  and  _166
REMARK   74  A    between atoms: _169  and  _171
REMARK   75  A    between atoms: _171  and  _172
REMARK   76  A    between atoms: _171  and  _174
REMARK   77  A    between atoms: _177  and  _179
REMARK   78  A    between atoms: _179  and  _180
REMARK   79  A    between atoms: _179  and  _182
REMARK   80  A    between atoms: _182  and  _183
REMARK   81  A    between atoms: _186  and  _188
REMARK   82  A    between atoms: _188  and  _189
REMARK   83  A    between atoms: _188  and  _191
REMARK   84  A    between atoms: _191  and  _192
REMARK   85  A    between atoms: _196  and  _197
REMARK   86  A    between atoms: _202  and  _204
REMARK   87  A    between atoms: _204  and  _205
REMARK   88  A    between atoms: _204  and  _207
REMARK   89  A    between atoms: _210  and  _212
REMARK   90  A    between atoms: _212  and  _213
REMARK   91  A    between atoms: _212  and  _215
REMARK   92  A    between atoms: _215  and  _216
REMARK   93  A    between atoms: _221  and  _223
REMARK   94  A    between atoms: _223  and  _224
REMARK   95  A    between atoms: _223  and  _226
REMARK   96  A    between atoms: _226  and  _227
REMARK   97  A    between atoms: _230  and  _232
REMARK   98  A    between atoms: _232  and  _233
REMARK   99  A    between atoms: _232  and  _235
REMARK  100  A    between atoms: _235  and  _236
REMARK  101  A    between atoms: _239  and  _241
REMARK  102  A    between atoms: _241  and  _242
REMARK  103  A    between atoms: _244  and  _246
REMARK  104  A    between atoms: _246  and  _247
REMARK  105  A    between atoms: _246  and  _249
REMARK  106  A    between atoms: _249  and  _250
REMARK  107  A    between atoms: _250  and  _251
REMARK  108  A    between atoms: _251  and  _252
REMARK  109  A    between atoms: _261  and  _263
REMARK  110  A    between atoms: _263  and  _264
REMARK  111  A    between atoms: _263  and  _266
REMARK  112  A    between atoms: _266  and  _267
REMARK  113  A    between atoms: _272  and  _274
REMARK  114  A    between atoms: _274  and  _275
REMARK  115  A    between atoms: _274  and  _277
REMARK  116  A    between atoms: _277  and  _278
REMARK  117  A    between atoms: _278  and  _279
REMARK  118  A    between atoms: _279  and  _280
REMARK  119  A    between atoms: _289  and  _291
REMARK  120  A    between atoms: _291  and  _292
REMARK  121  A    between atoms: _291  and  _294
REMARK  122  A    between atoms: _294  and  _295
REMARK  123  A    between atoms: _298  and  _300
REMARK  124  A    between atoms: _300  and  _301
REMARK  125  A    between atoms: _300  and  _303
REMARK  126  A    between atoms: _303  and  _304
REMARK  127  A    between atoms: _307  and  _309
REMARK  128  A    between atoms: _309  and  _310
REMARK  129  A    between atoms: _309  and  _312
REMARK  130  A    between atoms: _312  and  _313
REMARK  131  A    between atoms: _316  and  _318
REMARK  132  A    between atoms: _318  and  _319
REMARK  133  A    between atoms: _318  and  _321
REMARK  134  A    between atoms: _321  and  _322
REMARK  135  A    between atoms: _325  and  _327
REMARK  136  A    between atoms: _327  and  _328
REMARK  137  A    between atoms: _330  and  _332
REMARK  138  A    between atoms: _332  and  _333
REMARK  139  A    between atoms: _336  and  _338
REMARK  140  A    between atoms: _338  and  _339
REMARK  141  A    between atoms: _338  and  _341
REMARK  142  A    between atoms: _341  and  _342
REMARK  143  A    between atoms: _345  and  _347
REMARK  144  A    between atoms: _347  and  _348
REMARK  145  A    between atoms: _347  and  _350
REMARK  146  A    between atoms: _350  and  _351
REMARK  147  A    between atoms: _354  and  _356
REMARK  148  A    between atoms: _356  and  _357
REMARK  149  A    between atoms: _356  and  _359
REMARK  150  A    between atoms: _359  and  _360
REMARK  151  A    between atoms: _363  and  _365
REMARK  152  A    between atoms: _365  and  _366
REMARK  153  A    between atoms: _365  and  _368
REMARK  154  A    between atoms: _371  and  _373
REMARK  155  A    between atoms: _373  and  _374
REMARK  156  A    between atoms: _373  and  _376
REMARK  157  A    between atoms: _376  and  _377
REMARK  158  A    between atoms: _377  and  _378
REMARK  159  A    between atoms: _378  and  _379
REMARK  160  A    between atoms: _379  and  _380
REMARK  161  A    between atoms: _384  and  _386
REMARK  162  A    between atoms: _386  and  _387
REMARK  163  A    between atoms: _386  and  _389
REMARK  164  A    between atoms: _389  and  _390
REMARK  165  A    between atoms: _390  and  _391
REMARK  166  A    between atoms: _393  and  _395
REMARK  167  A    between atoms: _395  and  _396
REMARK  168  A    between atoms: _395  and  _398
REMARK  169  A    between atoms: _398  and  _399
REMARK  170  A    between atoms: _402  and  _404
REMARK  171  A    between atoms: _404  and  _405
REMARK  172  A    between atoms: _407  and  _409
REMARK  173  A    between atoms: _409  and  _410
REMARK  174  A    between atoms: _412  and  _414
REMARK  175  A    between atoms: _414  and  _415
REMARK  176  A    between atoms: _414  and  _417
REMARK  177  A    between atoms: _417  and  _418
REMARK  178  A    between atoms: _421  and  _423
REMARK  179  A    between atoms: _423  and  _424
REMARK  180  A    between atoms: _426  and  _428
REMARK  181  A    between atoms: _428  and  _429
REMARK  182  A    between atoms: _431  and  _433
REMARK  183  A    between atoms: _433  and  _434
REMARK  184  A    between atoms: _433  and  _436
REMARK  185  A    between atoms: _436  and  _437
REMARK  186  A    between atoms: _443  and  _445
REMARK  187  A    between atoms: _445  and  _446
REMARK  188  A    between atoms: _445  and  _448
REMARK  189  A    between atoms: _448  and  _449
REMARK  190  A    between atoms: _452  and  _454
REMARK  191  A    between atoms: _454  and  _455
REMARK  192  A    between atoms: _454  and  _457
REMARK  193  A    between atoms: _457  and  _458
REMARK  194  A    between atoms: _461  and  _463
REMARK  195  A    between atoms: _463  and  _464
REMARK  196  A    between atoms: _463  and  _466
REMARK  197  A    between atoms: _466  and  _467
REMARK  198  A    between atoms: _471  and  _472
REMARK  199  A    between atoms: _477  and  _479
REMARK  200  A    between atoms: _479  and  _480
REMARK  201  A    between atoms: _479  and  _482
REMARK  202  A    between atoms: _485  and  _487
REMARK  203  A    between atoms: _487  and  _488
REMARK  204  A    between atoms: _487  and  _490
REMARK  205  A    between atoms: _490  and  _491
REMARK  206  A    between atoms: _496  and  _498
REMARK  207  A    between atoms: _498  and  _499
REMARK  208  A    between atoms: _498  and  _501
REMARK  209  A    between atoms: _501  and  _502
REMARK  210  A    between atoms: _505  and  _507
REMARK  211  A    between atoms: _507  and  _508
REMARK  212  A    between atoms: _507  and  _510
REMARK  213  A    between atoms: _510  and  _511
REMARK  214  A    between atoms: _514  and  _516
REMARK  215  A    between atoms: _516  and  _517
REMARK  216  A    between atoms: _519  and  _521
REMARK  217  A    between atoms: _521  and  _522
REMARK  218  A    between atoms: _521  and  _524
REMARK  219  A    between atoms: _524  and  _525
REMARK  220  A    between atoms: _525  and  _526
REMARK  221  A    between atoms: _526  and  _527
REMARK  222  A    between atoms: _536  and  _538
REMARK  223  A    between atoms: _538  and  _539
REMARK  224  A    between atoms: _538  and  _541
REMARK  225  A    between atoms: _541  and  _542
REMARK                            x       y       z     vdW  Elec       q    Type
REMARK                         _______ _______ _______ _____ _____    ______ ____
ROOT
ATOM      1  O   HOH     1       8.951  16.315  26.887  0.00  0.00    +0.000 OA
ENDROOT
TORSDOF 0
REMARK  Name = ../refined-set-2016/2i4u/2i4u_pocket.pdb
REMARK  225 active torsions:
REMARK  status: ('A' for Active; 'I' for Inactive)
REMARK    1  A    between atoms: _1  and  _3
REMARK    2  A    between atoms: _3  and  _4
REMARK    3  A    between atoms: _3  and  _6
REMARK    4  A    between atoms: _6  and  _7
REMARK    5  A    between atoms: _7  and  _8
REMARK    6  A    between atoms: _8  and  _9
REMARK    7  A    between atoms: _18  and  _20
REMARK    8  A    between atoms: _20  and  _21
REMARK    9  A    between atoms: _20  and  _23
REMARK   10  A    between atoms: _23  and  _24
REMARK   11  A    between atoms: _27  and  _29
REMARK   12  A    between atoms: _29  and  _30
REMARK   13  A    between atoms: _29  and  _32
REMARK   14  A    between atoms: _32  and  _33
REMARK   15  A    between atoms: _36  and  _38
REMARK   16  A    between atoms: _38  and  _39
REMARK   17  A    between atoms: _38  and  _41
REMARK   18  A    between atoms: _41  and  _42
REMARK   19  A    between atoms: _45  and  _47
REMARK   20  A    between atoms: _47  and  _48
REMARK   21  A    between atoms: _47  and  _50
REMARK   22  A    between atoms: _50  and  _51
REMARK   23  A    between atoms: _54  and  _56
REMARK   24  A    between atoms: _56  and  _57
REMARK   25  A    between atoms: _59  and  _61
REMARK   26  A    between atoms: _61  and  _62
REMARK   27  A    between atoms: _65  and  _67
REMARK   28  A    between atoms: _67  and  _68
REMARK   29  A    between atoms: _67  and  _70
REMARK   30  A    between atoms: _70  and  _71
REMARK   31  A    between atoms: _74  and  _76
REMARK   32  A    between atoms: _76  and  _77
REMARK   33  A    between atoms: _76  and  _79
REMARK   34  A    between atoms: _79  and  _80
REMARK   35  A    between atoms: _83  and  _85
REMARK   36  A    between atoms: _85  and  _86
REMARK   37  A    between atoms: _85  and  _88
REMARK   38  A    between atoms: _88  and  _89
REMARK   39  A    between atoms: _92  and  _94
REMARK   40  A    between atoms: _94  and  _95
REMARK   41  A    between atoms: _94  and  _97
REMARK   42  A    between atoms: _100  and  _102
REMARK   43  A    between atoms: _102  and  _103
REMARK   44  A    between atoms: _102  and  _105
REMARK   45  A    between atoms: _105  and  _106
REMARK   46  A    between atoms: _106  and  _107
REMARK   47  A    between atoms: _107  and  _108
REMARK   48  A    between atoms: _108  and  _109
REMARK   49  A    between atoms: _113  and  _115
REMARK   50  A    between atoms: _115  and  _116
REMARK   51  A    between atoms: _115  and  _118
REMARK   52  A    between atoms: _118  and  _119
REMARK   53  A    between atoms: _119  and  _120
REMARK   54  A    between atoms: _122  and  _124
REMARK   55  A    between atoms: _124  and  _125
REMARK   56  A    between atoms: _124  and  _127
REMARK   57  A    between atoms: _127  and  _128
REMARK   58  A    between atoms: _131  and  _133
REMARK   59  A    between atoms: _133  and  _134
REMARK   60  A    between atoms: _136  and  _138
REMARK   61  A    between atoms: _138  and  _139
REMARK   62  A    between atoms: _141  and  _143
REMARK   63  A    between atoms: _143  and  _144
REMARK   64  A    between atoms: _143  and  _146
REMARK   65  A    between atoms: _146  and  _147
REMARK   66  A    between atoms: _150  and  _152
REMARK   67  A    between atoms: _152  and  _153
REMARK   68  A    between atoms: _155  and  _157
REMARK   69  A    between atoms: _157  and  _158
REMARK   70  A    between atoms: _160  and  _162
REMARK   71  A    between atoms: _162  and  _163
REMARK   72  A    between atoms: _162  and  _165
REMARK   73  A    between atoms: _165  and  _166
REMARK   74  A    between atoms: _169  and  _171
REMARK   75  A    between atoms: _171  and  _172
REMARK   76  A    between atoms: _171  and  _174
REMARK   77  A    between atoms: _177  and  _179
REMARK   78  A    between atoms: _179  and  _180
REMARK   79  A    between atoms: _179  and  _182
REMARK   80  A    between atoms: _182  and  _183
REMARK   81  A    between atoms: _186  and  _188
REMARK   82  A    between atoms: _188  and  _189
REMARK   83  A    between atoms: _188  and  _191
REMARK   84  A    between atoms: _191  and  _192
REMARK   85  A    between atoms: _196  and  _197
REMARK   86  A    between atoms: _202  and  _204
REMARK   87  A    between atoms: _204  and  _205
REMARK   88  A    between atoms: _204  and  _207
REMARK   89  A    between atoms: _210  and  _212
REMARK   90  A    between atoms: _212  and  _213
REMARK   91  A    between atoms: _212  and  _215
REMARK   92  A    between atoms: _215  and  _216
REMARK   93  A    between atoms: _221  and  _223
REMARK   94  A    between atoms: _223  and  _224
REMARK   95  A    between atoms: _223  and  _226
REMARK   96  A    between atoms: _226  and  _227
REMARK   97  A    between atoms: _230  and  _232
REMARK   98  A    between atoms: _232  and  _233
REMARK   99  A    between atoms: _232  and  _235
REMARK  100  A    between atoms: _235  and  _236
REMARK  101  A    between atoms: _239  and  _241
REMARK  102  A    between atoms: _241  and  _242
REMARK  103  A    between atoms: _244  and  _246
REMARK  104  A    between atoms: _246  and  _247
REMARK  105  A    between atoms: _246  and  _249
REMARK  106  A    between atoms: _249  and  _250
REMARK  107  A    between atoms: _250  and  _251
REMARK  108  A    between atoms: _251  and  _252
REMARK  109  A    between atoms: _261  and  _263
REMARK  110  A    between atoms: _263  and  _264
REMARK  111  A    between atoms: _263  and  _266
REMARK  112  A    between atoms: _266  and  _267
REMARK  113  A    between atoms: _272  and  _274
REMARK  114  A    between atoms: _274  and  _275
REMARK  115  A    between atoms: _274  and  _277
REMARK  116  A    between atoms: _277  and  _278
REMARK  117  A    between atoms: _278  and  _279
REMARK  118  A    between atoms: _279  and  _280
REMARK  119  A    between atoms: _289  and  _291
REMARK  120  A    between atoms: _291  and  _292
REMARK  121  A    between atoms: _291  and  _294
REMARK  122  A    between atoms: _294  and  _295
REMARK  123  A    between atoms: _298  and  _300
REMARK  124  A    between atoms: _300  and  _301
REMARK  125  A    between atoms: _300  and  _303
REMARK  126  A    between atoms: _303  and  _304
REMARK  127  A    between atoms: _307  and  _309
REMARK  128  A    between atoms: _309  and  _310
REMARK  129  A    between atoms: _309  and  _312
REMARK  130  A    between atoms: _312  and  _313
REMARK  131  A    between atoms: _316  and  _318
REMARK  132  A    between atoms: _318  and  _319
REMARK  133  A    between atoms: _318  and  _321
REMARK  134  A    between atoms: _321  and  _322
REMARK  135  A    between atoms: _325  and  _327
REMARK  136  A    between atoms: _327  and  _328
REMARK  137  A    between atoms: _330  and  _332
REMARK  138  A    between atoms: _332  and  _333
REMARK  139  A    between atoms: _336  and  _338
REMARK  140  A    between atoms: _338  and  _339
REMARK  141  A    between atoms: _338  and  _341
REMARK  142  A    between atoms: _341  and  _342
REMARK  143  A    between atoms: _345  and  _347
REMARK  144  A    between atoms: _347  and  _348
REMARK  145  A    between atoms: _347  and  _350
REMARK  146  A    between atoms: _350  and  _351
REMARK  147  A    between atoms: _354  and  _356
REMARK  148  A    between atoms: _356  and  _357
REMARK  149  A    between atoms: _356  and  _359
REMARK  150  A    between atoms: _359  and  _360
REMARK  151  A    between atoms: _363  and  _365
REMARK  152  A    between atoms: _365  and  _366
REMARK  153  A    between atoms: _365  and  _368
REMARK  154  A    between atoms: _371  and  _373
REMARK  155  A    between atoms: _373  and  _374
REMARK  156  A    between atoms: _373  and  _376
REMARK  157  A    between atoms: _376  and  _377
REMARK  158  A    between atoms: _377  and  _378
REMARK  159  A    between atoms: _378  and  _379
REMARK  160  A    between atoms: _379  and  _380
REMARK  161  A    between atoms: _384  and  _386
REMARK  162  A    between atoms: _386  and  _387
REMARK  163  A    between atoms: _386  and  _389
REMARK  164  A    between atoms: _389  and  _390
REMARK  165  A    between atoms: _390  and  _391
REMARK  166  A    between atoms: _393  and  _395
REMARK  167  A    between atoms: _395  and  _396
REMARK  168  A    between atoms: _395  and  _398
REMARK  169  A    between atoms: _398  and  _399
REMARK  170  A    between atoms: _402  and  _404
REMARK  171  A    between atoms: _404  and  _405
REMARK  172  A    between atoms: _407  and  _409
REMARK  173  A    between atoms: _409  and  _410
REMARK  174  A    between atoms: _412  and  _414
REMARK  175  A    between atoms: _414  and  _415
REMARK  176  A    between atoms: _414  and  _417
REMARK  177  A    between atoms: _417  and  _418
REMARK  178  A    between atoms: _421  and  _423
REMARK  179  A    between atoms: _423  and  _424
REMARK  180  A    between atoms: _426  and  _428
REMARK  181  A    between atoms: _428  and  _429
REMARK  182  A    between atoms: _431  and  _433
REMARK  183  A    between atoms: _433  and  _434
REMARK  184  A    between atoms: _433  and  _436
REMARK  185  A    between atoms: _436  and  _437
REMARK  186  A    between atoms: _443  and  _445
REMARK  187  A    between atoms: _445  and  _446
REMARK  188  A    between atoms: _445  and  _448
REMARK  189  A    between atoms: _448  and  _449
REMARK  190  A    between atoms: _452  and  _454
REMARK  191  A    between atoms: _454  and  _455
REMARK  192  A    between atoms: _454  and  _457
REMARK  193  A    between atoms: _457  and  _458
REMARK  194  A    between atoms: _461  and  _463
REMARK  195  A    between atoms: _463  and  _464
REMARK  196  A    between atoms: _463  and  _466
REMARK  197  A    between atoms: _466  and  _467
REMARK  198  A    between atoms: _471  and  _472
REMARK  199  A    between atoms: _477  and  _479
REMARK  200  A    between atoms: _479  and  _480
REMARK  201  A    between atoms: _479  and  _482
REMARK  202  A    between atoms: _485  and  _487
REMARK  203  A    between atoms: _487  and  _488
REMARK  204  A    between atoms: _487  and  _490
REMARK  205  A    between atoms: _490  and  _491
REMARK  206  A    between atoms: _496  and  _498
REMARK  207  A    between atoms: _498  and  _499
REMARK  208  A    between atoms: _498  and  _501
REMARK  209  A    between atoms: _501  and  _502
REMARK  210  A    between atoms: _505  and  _507
REMARK  211  A    between atoms: _507  and  _508
REMARK  212  A    between atoms: _507  and  _510
REMARK  213  A    between atoms: _510  and  _511
REMARK  214  A    between atoms: _514  and  _516
REMARK  215  A    between atoms: _516  and  _517
REMARK  216  A    between atoms: _519  and  _521
REMARK  217  A    between atoms: _521  and  _522
REMARK  218  A    between atoms: _521  and  _524
REMARK  219  A    between atoms: _524  and  _525
REMARK  220  A    between atoms: _525  and  _526
REMARK  221  A    between atoms: _526  and  _527
REMARK  222  A    between atoms: _536  and  _538
REMARK  223  A    between atoms: _538  and  _539
REMARK  224  A    between atoms: _538  and  _541
REMARK  225  A    between atoms: _541  and  _542
REMARK                            x       y       z     vdW  Elec       q    Type
REMARK                         _______ _______ _______ _____ _____    ______ ____
ROOT
ATOM      1  O   HOH     1      15.078  15.666  11.954  0.00  0.00    +0.000 OA
ENDROOT
TORSDOF 0
REMARK  Name = ../refined-set-2016/2i4u/2i4u_pocket.pdb
REMARK  225 active torsions:
REMARK  status: ('A' for Active; 'I' for Inactive)
REMARK    1  A    between atoms: _1  and  _3
REMARK    2  A    between atoms: _3  and  _4
REMARK    3  A    between atoms: _3  and  _6
REMARK    4  A    between atoms: _6  and  _7
REMARK    5  A    between atoms: _7  and  _8
REMARK    6  A    between atoms: _8  and  _9
REMARK    7  A    between atoms: _18  and  _20
REMARK    8  A    between atoms: _20  and  _21
REMARK    9  A    between atoms: _20  and  _23
REMARK   10  A    between atoms: _23  and  _24
REMARK   11  A    between atoms: _27  and  _29
REMARK   12  A    between atoms: _29  and  _30
REMARK   13  A    between atoms: _29  and  _32
REMARK   14  A    between atoms: _32  and  _33
REMARK   15  A    between atoms: _36  and  _38
REMARK   16  A    between atoms: _38  and  _39
REMARK   17  A    between atoms: _38  and  _41
REMARK   18  A    between atoms: _41  and  _42
REMARK   19  A    between atoms: _45  and  _47
REMARK   20  A    between atoms: _47  and  _48
REMARK   21  A    between atoms: _47  and  _50
REMARK   22  A    between atoms: _50  and  _51
REMARK   23  A    between atoms: _54  and  _56
REMARK   24  A    between atoms: _56  and  _57
REMARK   25  A    between atoms: _59  and  _61
REMARK   26  A    between atoms: _61  and  _62
REMARK   27  A    between atoms: _65  and  _67
REMARK   28  A    between atoms: _67  and  _68
REMARK   29  A    between atoms: _67  and  _70
REMARK   30  A    between atoms: _70  and  _71
REMARK   31  A    between atoms: _74  and  _76
REMARK   32  A    between atoms: _76  and  _77
REMARK   33  A    between atoms: _76  and  _79
REMARK   34  A    between atoms: _79  and  _80
REMARK   35  A    between atoms: _83  and  _85
REMARK   36  A    between atoms: _85  and  _86
REMARK   37  A    between atoms: _85  and  _88
REMARK   38  A    between atoms: _88  and  _89
REMARK   39  A    between atoms: _92  and  _94
REMARK   40  A    between atoms: _94  and  _95
REMARK   41  A    between atoms: _94  and  _97
REMARK   42  A    between atoms: _100  and  _102
REMARK   43  A    between atoms: _102  and  _103
REMARK   44  A    between atoms: _102  and  _105
REMARK   45  A    between atoms: _105  and  _106
REMARK   46  A    between atoms: _106  and  _107
REMARK   47  A    between atoms: _107  and  _108
REMARK   48  A    between atoms: _108  and  _109
REMARK   49  A    between atoms: _113  and  _115
REMARK   50  A    between atoms: _115  and  _116
REMARK   51  A    between atoms: _115  and  _118
REMARK   52  A    between atoms: _118  and  _119
REMARK   53  A    between atoms: _119  and  _120
REMARK   54  A    between atoms: _122  and  _124
REMARK   55  A    between atoms: _124  and  _125
REMARK   56  A    between atoms: _124  and  _127
REMARK   57  A    between atoms: _127  and  _128
REMARK   58  A    between atoms: _131  and  _133
REMARK   59  A    between atoms: _133  and  _134
REMARK   60  A    between atoms: _136  and  _138
REMARK   61  A    between atoms: _138  and  _139
REMARK   62  A    between atoms: _141  and  _143
REMARK   63  A    between atoms: _143  and  _144
REMARK   64  A    between atoms: _143  and  _146
REMARK   65  A    between atoms: _146  and  _147
REMARK   66  A    between atoms: _150  and  _152
REMARK   67  A    between atoms: _152  and  _153
REMARK   68  A    between atoms: _155  and  _157
REMARK   69  A    between atoms: _157  and  _158
REMARK   70  A    between atoms: _160  and  _162
REMARK   71  A    between atoms: _162  and  _163
REMARK   72  A    between atoms: _162  and  _165
REMARK   73  A    between atoms: _165  and  _166
REMARK   74  A    between atoms: _169  and  _171
REMARK   75  A    between atoms: _171  and  _172
REMARK   76  A    between atoms: _171  and  _174
REMARK   77  A    between atoms: _177  and  _179
REMARK   78  A    between atoms: _179  and  _180
REMARK   79  A    between atoms: _179  and  _182
REMARK   80  A    between atoms: _182  and  _183
REMARK   81  A    between atoms: _186  and  _188
REMARK   82  A    between atoms: _188  and  _189
REMARK   83  A    between atoms: _188  and  _191
REMARK   84  A    between atoms: _191  and  _192
REMARK   85  A    between atoms: _196  and  _197
REMARK   86  A    between atoms: _202  and  _204
REMARK   87  A    between atoms: _204  and  _205
REMARK   88  A    between atoms: _204  and  _207
REMARK   89  A    between atoms: _210  and  _212
REMARK   90  A    between atoms: _212  and  _213
REMARK   91  A    between atoms: _212  and  _215
REMARK   92  A    between atoms: _215  and  _216
REMARK   93  A    between atoms: _221  and  _223
REMARK   94  A    between atoms: _223  and  _224
REMARK   95  A    between atoms: _223  and  _226
REMARK   96  A    between atoms: _226  and  _227
REMARK   97  A    between atoms: _230  and  _232
REMARK   98  A    between atoms: _232  and  _233
REMARK   99  A    between atoms: _232  and  _235
REMARK  100  A    between atoms: _235  and  _236
REMARK  101  A    between atoms: _239  and  _241
REMARK  102  A    between atoms: _241  and  _242
REMARK  103  A    between atoms: _244  and  _246
REMARK  104  A    between atoms: _246  and  _247
REMARK  105  A    between atoms: _246  and  _249
REMARK  106  A    between atoms: _249  and  _250
REMARK  107  A    between atoms: _250  and  _251
REMARK  108  A    between atoms: _251  and  _252
REMARK  109  A    between atoms: _261  and  _263
REMARK  110  A    between atoms: _263  and  _264
REMARK  111  A    between atoms: _263  and  _266
REMARK  112  A    between atoms: _266  and  _267
REMARK  113  A    between atoms: _272  and  _274
REMARK  114  A    between atoms: _274  and  _275
REMARK  115  A    between atoms: _274  and  _277
REMARK  116  A    between atoms: _277  and  _278
REMARK  117  A    between atoms: _278  and  _279
REMARK  118  A    between atoms: _279  and  _280
REMARK  119  A    between atoms: _289  and  _291
REMARK  120  A    between atoms: _291  and  _292
REMARK  121  A    between atoms: _291  and  _294
REMARK  122  A    between atoms: _294  and  _295
REMARK  123  A    between atoms: _298  and  _300
REMARK  124  A    between atoms: _300  and  _301
REMARK  125  A    between atoms: _300  and  _303
REMARK  126  A    between atoms: _303  and  _304
REMARK  127  A    between atoms: _307  and  _309
REMARK  128  A    between atoms: _309  and  _310
REMARK  129  A    between atoms: _309  and  _312
REMARK  130  A    between atoms: _312  and  _313
REMARK  131  A    between atoms: _316  and  _318
REMARK  132  A    between atoms: _318  and  _319
REMARK  133  A    between atoms: _318  and  _321
REMARK  134  A    between atoms: _321  and  _322
REMARK  135  A    between atoms: _325  and  _327
REMARK  136  A    between atoms: _327  and  _328
REMARK  137  A    between atoms: _330  and  _332
REMARK  138  A    between atoms: _332  and  _333
REMARK  139  A    between atoms: _336  and  _338
REMARK  140  A    between atoms: _338  and  _339
REMARK  141  A    between atoms: _338  and  _341
REMARK  142  A    between atoms: _341  and  _342
REMARK  143  A    between atoms: _345  and  _347
REMARK  144  A    between atoms: _347  and  _348
REMARK  145  A    between atoms: _347  and  _350
REMARK  146  A    between atoms: _350  and  _351
REMARK  147  A    between atoms: _354  and  _356
REMARK  148  A    between atoms: _356  and  _357
REMARK  149  A    between atoms: _356  and  _359
REMARK  150  A    between atoms: _359  and  _360
REMARK  151  A    between atoms: _363  and  _365
REMARK  152  A    between atoms: _365  and  _366
REMARK  153  A    between atoms: _365  and  _368
REMARK  154  A    between atoms: _371  and  _373
REMARK  155  A    between atoms: _373  and  _374
REMARK  156  A    between atoms: _373  and  _376
REMARK  157  A    between atoms: _376  and  _377
REMARK  158  A    between atoms: _377  and  _378
REMARK  159  A    between atoms: _378  and  _379
REMARK  160  A    between atoms: _379  and  _380
REMARK  161  A    between atoms: _384  and  _386
REMARK  162  A    between atoms: _386  and  _387
REMARK  163  A    between atoms: _386  and  _389
REMARK  164  A    between atoms: _389  and  _390
REMARK  165  A    between atoms: _390  and  _391
REMARK  166  A    between atoms: _393  and  _395
REMARK  167  A    between atoms: _395  and  _396
REMARK  168  A    between atoms: _395  and  _398
REMARK  169  A    between atoms: _398  and  _399
REMARK  170  A    between atoms: _402  and  _404
REMARK  171  A    between atoms: _404  and  _405
REMARK  172  A    between atoms: _407  and  _409
REMARK  173  A    between atoms: _409  and  _410
REMARK  174  A    between atoms: _412  and  _414
REMARK  175  A    between atoms: _414  and  _415
REMARK  176  A    between atoms: _414  and  _417
REMARK  177  A    between atoms: _417  and  _418
REMARK  178  A    between atoms: _421  and  _423
REMARK  179  A    between atoms: _423  and  _424
REMARK  180  A    between atoms: _426  and  _428
REMARK  181  A    between atoms: _428  and  _429
REMARK  182  A    between atoms: _431  and  _433
REMARK  183  A    between atoms: _433  and  _434
REMARK  184  A    between atoms: _433  and  _436
REMARK  185  A    between atoms: _436  and  _437
REMARK  186  A    between atoms: _443  and  _445
REMARK  187  A    between atoms: _445  and  _446
REMARK  188  A    between atoms: _445  and  _448
REMARK  189  A    between atoms: _448  and  _449
REMARK  190  A    between atoms: _452  and  _454
REMARK  191  A    between atoms: _454  and  _455
REMARK  192  A    between atoms: _454  and  _457
REMARK  193  A    between atoms: _457  and  _458
REMARK  194  A    between atoms: _461  and  _463
REMARK  195  A    between atoms: _463  and  _464
REMARK  196  A    between atoms: _463  and  _466
REMARK  197  A    between atoms: _466  and  _467
REMARK  198  A    between atoms: _471  and  _472
REMARK  199  A    between atoms: _477  and  _479
REMARK  200  A    between atoms: _479  and  _480
REMARK  201  A    between atoms: _479  and  _482
REMARK  202  A    between atoms: _485  and  _487
REMARK  203  A    between atoms: _487  and  _488
REMARK  204  A    between atoms: _487  and  _490
REMARK  205  A    between atoms: _490  and  _491
REMARK  206  A    between atoms: _496  and  _498
REMARK  207  A    between atoms: _498  and  _499
REMARK  208  A    between atoms: _498  and  _501
REMARK  209  A    between atoms: _501  and  _502
REMARK  210  A    between atoms: _505  and  _507
REMARK  211  A    between atoms: _507  and  _508
REMARK  212  A    between atoms: _507  and  _510
REMARK  213  A    between atoms: _510  and  _511
REMARK  214  A    between atoms: _514  and  _516
REMARK  215  A    between atoms: _516  and  _517
REMARK  216  A    between atoms: _519  and  _521
REMARK  217  A    between atoms: _521  and  _522
REMARK  218  A    between atoms: _521  and  _524
REMARK  219  A    between atoms: _524  and  _525
REMARK  220  A    between atoms: _525  and  _526
REMARK  221  A    between atoms: _526  and  _527
REMARK  222  A    between atoms: _536  and  _538
REMARK  223  A    between atoms: _538  and  _539
REMARK  224  A    between atoms: _538  and  _541
REMARK  225  A    between atoms: _541  and  _542
REMARK                            x       y       z     vdW  Elec       q    Type
REMARK                         _______ _______ _______ _____ _____    ______ ____
ROOT
ATOM      1  O   HOH     1      10.468  15.370  16.628  0.00  0.00    +0.000 OA
ENDROOT
TORSDOF 0
REMARK  Name = ../refined-set-2016/2i4u/2i4u_pocket.pdb
REMARK  225 active torsions:
REMARK  status: ('A' for Active; 'I' for Inactive)
REMARK    1  A    between atoms: _1  and  _3
REMARK    2  A    between atoms: _3  and  _4
REMARK    3  A    between atoms: _3  and  _6
REMARK    4  A    between atoms: _6  and  _7
REMARK    5  A    between atoms: _7  and  _8
REMARK    6  A    between atoms: _8  and  _9
REMARK    7  A    between atoms: _18  and  _20
REMARK    8  A    between atoms: _20  and  _21
REMARK    9  A    between atoms: _20  and  _23
REMARK   10  A    between atoms: _23  and  _24
REMARK   11  A    between atoms: _27  and  _29
REMARK   12  A    between atoms: _29  and  _30
REMARK   13  A    between atoms: _29  and  _32
REMARK   14  A    between atoms: _32  and  _33
REMARK   15  A    between atoms: _36  and  _38
REMARK   16  A    between atoms: _38  and  _39
REMARK   17  A    between atoms: _38  and  _41
REMARK   18  A    between atoms: _41  and  _42
REMARK   19  A    between atoms: _45  and  _47
REMARK   20  A    between atoms: _47  and  _48
REMARK   21  A    between atoms: _47  and  _50
REMARK   22  A    between atoms: _50  and  _51
REMARK   23  A    between atoms: _54  and  _56
REMARK   24  A    between atoms: _56  and  _57
REMARK   25  A    between atoms: _59  and  _61
REMARK   26  A    between atoms: _61  and  _62
REMARK   27  A    between atoms: _65  and  _67
REMARK   28  A    between atoms: _67  and  _68
REMARK   29  A    between atoms: _67  and  _70
REMARK   30  A    between atoms: _70  and  _71
REMARK   31  A    between atoms: _74  and  _76
REMARK   32  A    between atoms: _76  and  _77
REMARK   33  A    between atoms: _76  and  _79
REMARK   34  A    between atoms: _79  and  _80
REMARK   35  A    between atoms: _83  and  _85
REMARK   36  A    between atoms: _85  and  _86
REMARK   37  A    between atoms: _85  and  _88
REMARK   38  A    between atoms: _88  and  _89
REMARK   39  A    between atoms: _92  and  _94
REMARK   40  A    between atoms: _94  and  _95
REMARK   41  A    between atoms: _94  and  _97
REMARK   42  A    between atoms: _100  and  _102
REMARK   43  A    between atoms: _102  and  _103
REMARK   44  A    between atoms: _102  and  _105
REMARK   45  A    between atoms: _105  and  _106
REMARK   46  A    between atoms: _106  and  _107
REMARK   47  A    between atoms: _107  and  _108
REMARK   48  A    between atoms: _108  and  _109
REMARK   49  A    between atoms: _113  and  _115
REMARK   50  A    between atoms: _115  and  _116
REMARK   51  A    between atoms: _115  and  _118
REMARK   52  A    between atoms: _118  and  _119
REMARK   53  A    between atoms: _119  and  _120
REMARK   54  A    between atoms: _122  and  _124
REMARK   55  A    between atoms: _124  and  _125
REMARK   56  A    between atoms: _124  and  _127
REMARK   57  A    between atoms: _127  and  _128
REMARK   58  A    between atoms: _131  and  _133
REMARK   59  A    between atoms: _133  and  _134
REMARK   60  A    between atoms: _136  and  _138
REMARK   61  A    between atoms: _138  and  _139
REMARK   62  A    between atoms: _141  and  _143
REMARK   63  A    between atoms: _143  and  _144
REMARK   64  A    between atoms: _143  and  _146
REMARK   65  A    between atoms: _146  and  _147
REMARK   66  A    between atoms: _150  and  _152
REMARK   67  A    between atoms: _152  and  _153
REMARK   68  A    between atoms: _155  and  _157
REMARK   69  A    between atoms: _157  and  _158
REMARK   70  A    between atoms: _160  and  _162
REMARK   71  A    between atoms: _162  and  _163
REMARK   72  A    between atoms: _162  and  _165
REMARK   73  A    between atoms: _165  and  _166
REMARK   74  A    between atoms: _169  and  _171
REMARK   75  A    between atoms: _171  and  _172
REMARK   76  A    between atoms: _171  and  _174
REMARK   77  A    between atoms: _177  and  _179
REMARK   78  A    between atoms: _179  and  _180
REMARK   79  A    between atoms: _179  and  _182
REMARK   80  A    between atoms: _182  and  _183
REMARK   81  A    between atoms: _186  and  _188
REMARK   82  A    between atoms: _188  and  _189
REMARK   83  A    between atoms: _188  and  _191
REMARK   84  A    between atoms: _191  and  _192
REMARK   85  A    between atoms: _196  and  _197
REMARK   86  A    between atoms: _202  and  _204
REMARK   87  A    between atoms: _204  and  _205
REMARK   88  A    between atoms: _204  and  _207
REMARK   89  A    between atoms: _210  and  _212
REMARK   90  A    between atoms: _212  and  _213
REMARK   91  A    between atoms: _212  and  _215
REMARK   92  A    between atoms: _215  and  _216
REMARK   93  A    between atoms: _221  and  _223
REMARK   94  A    between atoms: _223  and  _224
REMARK   95  A    between atoms: _223  and  _226
REMARK   96  A    between atoms: _226  and  _227
REMARK   97  A    between atoms: _230  and  _232
REMARK   98  A    between atoms: _232  and  _233
REMARK   99  A    between atoms: _232  and  _235
REMARK  100  A    between atoms: _235  and  _236
REMARK  101  A    between atoms: _239  and  _241
REMARK  102  A    between atoms: _241  and  _242
REMARK  103  A    between atoms: _244  and  _246
REMARK  104  A    between atoms: _246  and  _247
REMARK  105  A    between atoms: _246  and  _249
REMARK  106  A    between atoms: _249  and  _250
REMARK  107  A    between atoms: _250  and  _251
REMARK  108  A    between atoms: _251  and  _252
REMARK  109  A    between atoms: _261  and  _263
REMARK  110  A    between atoms: _263  and  _264
REMARK  111  A    between atoms: _263  and  _266
REMARK  112  A    between atoms: _266  and  _267
REMARK  113  A    between atoms: _272  and  _274
REMARK  114  A    between atoms: _274  and  _275
REMARK  115  A    between atoms: _274  and  _277
REMARK  116  A    between atoms: _277  and  _278
REMARK  117  A    between atoms: _278  and  _279
REMARK  118  A    between atoms: _279  and  _280
REMARK  119  A    between atoms: _289  and  _291
REMARK  120  A    between atoms: _291  and  _292
REMARK  121  A    between atoms: _291  and  _294
REMARK  122  A    between atoms: _294  and  _295
REMARK  123  A    between atoms: _298  and  _300
REMARK  124  A    between atoms: _300  and  _301
REMARK  125  A    between atoms: _300  and  _303
REMARK  126  A    between atoms: _303  and  _304
REMARK  127  A    between atoms: _307  and  _309
REMARK  128  A    between atoms: _309  and  _310
REMARK  129  A    between atoms: _309  and  _312
REMARK  130  A    between atoms: _312  and  _313
REMARK  131  A    between atoms: _316  and  _318
REMARK  132  A    between atoms: _318  and  _319
REMARK  133  A    between atoms: _318  and  _321
REMARK  134  A    between atoms: _321  and  _322
REMARK  135  A    between atoms: _325  and  _327
REMARK  136  A    between atoms: _327  and  _328
REMARK  137  A    between atoms: _330  and  _332
REMARK  138  A    between atoms: _332  and  _333
REMARK  139  A    between atoms: _336  and  _338
REMARK  140  A    between atoms: _338  and  _339
REMARK  141  A    between atoms: _338  and  _341
REMARK  142  A    between atoms: _341  and  _342
REMARK  143  A    between atoms: _345  and  _347
REMARK  144  A    between atoms: _347  and  _348
REMARK  145  A    between atoms: _347  and  _350
REMARK  146  A    between atoms: _350  and  _351
REMARK  147  A    between atoms: _354  and  _356
REMARK  148  A    between atoms: _356  and  _357
REMARK  149  A    between atoms: _356  and  _359
REMARK  150  A    between atoms: _359  and  _360
REMARK  151  A    between atoms: _363  and  _365
REMARK  152  A    between atoms: _365  and  _366
REMARK  153  A    between atoms: _365  and  _368
REMARK  154  A    between atoms: _371  and  _373
REMARK  155  A    between atoms: _373  and  _374
REMARK  156  A    between atoms: _373  and  _376
REMARK  157  A    between atoms: _376  and  _377
REMARK  158  A    between atoms: _377  and  _378
REMARK  159  A    between atoms: _378  and  _379
REMARK  160  A    between atoms: _379  and  _380
REMARK  161  A    between atoms: _384  and  _386
REMARK  162  A    between atoms: _386  and  _387
REMARK  163  A    between atoms: _386  and  _389
REMARK  164  A    between atoms: _389  and  _390
REMARK  165  A    between atoms: _390  and  _391
REMARK  166  A    between atoms: _393  and  _395
REMARK  167  A    between atoms: _395  and  _396
REMARK  168  A    between atoms: _395  and  _398
REMARK  169  A    between atoms: _398  and  _399
REMARK  170  A    between atoms: _402  and  _404
REMARK  171  A    between atoms: _404  and  _405
REMARK  172  A    between atoms: _407  and  _409
REMARK  173  A    between atoms: _409  and  _410
REMARK  174  A    between atoms: _412  and  _414
REMARK  175  A    between atoms: _414  and  _415
REMARK  176  A    between atoms: _414  and  _417
REMARK  177  A    between atoms: _417  and  _418
REMARK  178  A    between atoms: _421  and  _423
REMARK  179  A    between atoms: _423  and  _424
REMARK  180  A    between atoms: _426  and  _428
REMARK  181  A    between atoms: _428  and  _429
REMARK  182  A    between atoms: _431  and  _433
REMARK  183  A    between atoms: _433  and  _434
REMARK  184  A    between atoms: _433  and  _436
REMARK  185  A    between atoms: _436  and  _437
REMARK  186  A    between atoms: _443  and  _445
REMARK  187  A    between atoms: _445  and  _446
REMARK  188  A    between atoms: _445  and  _448
REMARK  189  A    between atoms: _448  and  _449
REMARK  190  A    between atoms: _452  and  _454
REMARK  191  A    between atoms: _454  and  _455
REMARK  192  A    between atoms: _454  and  _457
REMARK  193  A    between atoms: _457  and  _458
REMARK  194  A    between atoms: _461  and  _463
REMARK  195  A    between atoms: _463  and  _464
REMARK  196  A    between atoms: _463  and  _466
REMARK  197  A    between atoms: _466  and  _467
REMARK  198  A    between atoms: _471  and  _472
REMARK  199  A    between atoms: _477  and  _479
REMARK  200  A    between atoms: _479  and  _480
REMARK  201  A    between atoms: _479  and  _482
REMARK  202  A    between atoms: _485  and  _487
REMARK  203  A    between atoms: _487  and  _488
REMARK  204  A    between atoms: _487  and  _490
REMARK  205  A    between atoms: _490  and  _491
REMARK  206  A    between atoms: _496  and  _498
REMARK  207  A    between atoms: _498  and  _499
REMARK  208  A    between atoms: _498  and  _501
REMARK  209  A    between atoms: _501  and  _502
REMARK  210  A    between atoms: _505  and  _507
REMARK  211  A    between atoms: _507  and  _508
REMARK  212  A    between atoms: _507  and  _510
REMARK  213  A    between atoms: _510  and  _511
REMARK  214  A    between atoms: _514  and  _516
REMARK  215  A    between atoms: _516  and  _517
REMARK  216  A    between atoms: _519  and  _521
REMARK  217  A    between atoms: _521  and  _522
REMARK  218  A    between atoms: _521  and  _524
REMARK  219  A    between atoms: _524  and  _525
REMARK  220  A    between atoms: _525  and  _526
REMARK  221  A    between atoms: _526  and  _527
REMARK  222  A    between atoms: _536  and  _538
REMARK  223  A    between atoms: _538  and  _539
REMARK  224  A    between atoms: _538  and  _541
REMARK  225  A    between atoms: _541  and  _542
REMARK                            x       y       z     vdW  Elec       q    Type
REMARK                         _______ _______ _______ _____ _____    ______ ____
ROOT
ATOM      1  O   HOH     1      21.746  27.544  22.490  0.00  0.00    +0.000 OA
ENDROOT
TORSDOF 0
REMARK  Name = ../refined-set-2016/2i4u/2i4u_pocket.pdb
REMARK  225 active torsions:
REMARK  status: ('A' for Active; 'I' for Inactive)
REMARK    1  A    between atoms: _1  and  _3
REMARK    2  A    between atoms: _3  and  _4
REMARK    3  A    between atoms: _3  and  _6
REMARK    4  A    between atoms: _6  and  _7
REMARK    5  A    between atoms: _7  and  _8
REMARK    6  A    between atoms: _8  and  _9
REMARK    7  A    between atoms: _18  and  _20
REMARK    8  A    between atoms: _20  and  _21
REMARK    9  A    between atoms: _20  and  _23
REMARK   10  A    between atoms: _23  and  _24
REMARK   11  A    between atoms: _27  and  _29
REMARK   12  A    between atoms: _29  and  _30
REMARK   13  A    between atoms: _29  and  _32
REMARK   14  A    between atoms: _32  and  _33
REMARK   15  A    between atoms: _36  and  _38
REMARK   16  A    between atoms: _38  and  _39
REMARK   17  A    between atoms: _38  and  _41
REMARK   18  A    between atoms: _41  and  _42
REMARK   19  A    between atoms: _45  and  _47
REMARK   20  A    between atoms: _47  and  _48
REMARK   21  A    between atoms: _47  and  _50
REMARK   22  A    between atoms: _50  and  _51
REMARK   23  A    between atoms: _54  and  _56
REMARK   24  A    between atoms: _56  and  _57
REMARK   25  A    between atoms: _59  and  _61
REMARK   26  A    between atoms: _61  and  _62
REMARK   27  A    between atoms: _65  and  _67
REMARK   28  A    between atoms: _67  and  _68
REMARK   29  A    between atoms: _67  and  _70
REMARK   30  A    between atoms: _70  and  _71
REMARK   31  A    between atoms: _74  and  _76
REMARK   32  A    between atoms: _76  and  _77
REMARK   33  A    between atoms: _76  and  _79
REMARK   34  A    between atoms: _79  and  _80
REMARK   35  A    between atoms: _83  and  _85
REMARK   36  A    between atoms: _85  and  _86
REMARK   37  A    between atoms: _85  and  _88
REMARK   38  A    between atoms: _88  and  _89
REMARK   39  A    between atoms: _92  and  _94
REMARK   40  A    between atoms: _94  and  _95
REMARK   41  A    between atoms: _94  and  _97
REMARK   42  A    between atoms: _100  and  _102
REMARK   43  A    between atoms: _102  and  _103
REMARK   44  A    between atoms: _102  and  _105
REMARK   45  A    between atoms: _105  and  _106
REMARK   46  A    between atoms: _106  and  _107
REMARK   47  A    between atoms: _107  and  _108
REMARK   48  A    between atoms: _108  and  _109
REMARK   49  A    between atoms: _113  and  _115
REMARK   50  A    between atoms: _115  and  _116
REMARK   51  A    between atoms: _115  and  _118
REMARK   52  A    between atoms: _118  and  _119
REMARK   53  A    between atoms: _119  and  _120
REMARK   54  A    between atoms: _122  and  _124
REMARK   55  A    between atoms: _124  and  _125
REMARK   56  A    between atoms: _124  and  _127
REMARK   57  A    between atoms: _127  and  _128
REMARK   58  A    between atoms: _131  and  _133
REMARK   59  A    between atoms: _133  and  _134
REMARK   60  A    between atoms: _136  and  _138
REMARK   61  A    between atoms: _138  and  _139
REMARK   62  A    between atoms: _141  and  _143
REMARK   63  A    between atoms: _143  and  _144
REMARK   64  A    between atoms: _143  and  _146
REMARK   65  A    between atoms: _146  and  _147
REMARK   66  A    between atoms: _150  and  _152
REMARK   67  A    between atoms: _152  and  _153
REMARK   68  A    between atoms: _155  and  _157
REMARK   69  A    between atoms: _157  and  _158
REMARK   70  A    between atoms: _160  and  _162
REMARK   71  A    between atoms: _162  and  _163
REMARK   72  A    between atoms: _162  and  _165
REMARK   73  A    between atoms: _165  and  _166
REMARK   74  A    between atoms: _169  and  _171
REMARK   75  A    between atoms: _171  and  _172
REMARK   76  A    between atoms: _171  and  _174
REMARK   77  A    between atoms: _177  and  _179
REMARK   78  A    between atoms: _179  and  _180
REMARK   79  A    between atoms: _179  and  _182
REMARK   80  A    between atoms: _182  and  _183
REMARK   81  A    between atoms: _186  and  _188
REMARK   82  A    between atoms: _188  and  _189
REMARK   83  A    between atoms: _188  and  _191
REMARK   84  A    between atoms: _191  and  _192
REMARK   85  A    between atoms: _196  and  _197
REMARK   86  A    between atoms: _202  and  _204
REMARK   87  A    between atoms: _204  and  _205
REMARK   88  A    between atoms: _204  and  _207
REMARK   89  A    between atoms: _210  and  _212
REMARK   90  A    between atoms: _212  and  _213
REMARK   91  A    between atoms: _212  and  _215
REMARK   92  A    between atoms: _215  and  _216
REMARK   93  A    between atoms: _221  and  _223
REMARK   94  A    between atoms: _223  and  _224
REMARK   95  A    between atoms: _223  and  _226
REMARK   96  A    between atoms: _226  and  _227
REMARK   97  A    between atoms: _230  and  _232
REMARK   98  A    between atoms: _232  and  _233
REMARK   99  A    between atoms: _232  and  _235
REMARK  100  A    between atoms: _235  and  _236
REMARK  101  A    between atoms: _239  and  _241
REMARK  102  A    between atoms: _241  and  _242
REMARK  103  A    between atoms: _244  and  _246
REMARK  104  A    between atoms: _246  and  _247
REMARK  105  A    between atoms: _246  and  _249
REMARK  106  A    between atoms: _249  and  _250
REMARK  107  A    between atoms: _250  and  _251
REMARK  108  A    between atoms: _251  and  _252
REMARK  109  A    between atoms: _261  and  _263
REMARK  110  A    between atoms: _263  and  _264
REMARK  111  A    between atoms: _263  and  _266
REMARK  112  A    between atoms: _266  and  _267
REMARK  113  A    between atoms: _272  and  _274
REMARK  114  A    between atoms: _274  and  _275
REMARK  115  A    between atoms: _274  and  _277
REMARK  116  A    between atoms: _277  and  _278
REMARK  117  A    between atoms: _278  and  _279
REMARK  118  A    between atoms: _279  and  _280
REMARK  119  A    between atoms: _289  and  _291
REMARK  120  A    between atoms: _291  and  _292
REMARK  121  A    between atoms: _291  and  _294
REMARK  122  A    between atoms: _294  and  _295
REMARK  123  A    between atoms: _298  and  _300
REMARK  124  A    between atoms: _300  and  _301
REMARK  125  A    between atoms: _300  and  _303
REMARK  126  A    between atoms: _303  and  _304
REMARK  127  A    between atoms: _307  and  _309
REMARK  128  A    between atoms: _309  and  _310
REMARK  129  A    between atoms: _309  and  _312
REMARK  130  A    between atoms: _312  and  _313
REMARK  131  A    between atoms: _316  and  _318
REMARK  132  A    between atoms: _318  and  _319
REMARK  133  A    between atoms: _318  and  _321
REMARK  134  A    between atoms: _321  and  _322
REMARK  135  A    between atoms: _325  and  _327
REMARK  136  A    between atoms: _327  and  _328
REMARK  137  A    between atoms: _330  and  _332
REMARK  138  A    between atoms: _332  and  _333
REMARK  139  A    between atoms: _336  and  _338
REMARK  140  A    between atoms: _338  and  _339
REMARK  141  A    between atoms: _338  and  _341
REMARK  142  A    between atoms: _341  and  _342
REMARK  143  A    between atoms: _345  and  _347
REMARK  144  A    between atoms: _347  and  _348
REMARK  145  A    between atoms: _347  and  _350
REMARK  146  A    between atoms: _350  and  _351
REMARK  147  A    between atoms: _354  and  _356
REMARK  148  A    between atoms: _356  and  _357
REMARK  149  A    between atoms: _356  and  _359
REMARK  150  A    between atoms: _359  and  _360
REMARK  151  A    between atoms: _363  and  _365
REMARK  152  A    between atoms: _365  and  _366
REMARK  153  A    between atoms: _365  and  _368
REMARK  154  A    between atoms: _371  and  _373
REMARK  155  A    between atoms: _373  and  _374
REMARK  156  A    between atoms: _373  and  _376
REMARK  157  A    between atoms: _376  and  _377
REMARK  158  A    between atoms: _377  and  _378
REMARK  159  A    between atoms: _378  and  _379
REMARK  160  A    between atoms: _379  and  _380
REMARK  161  A    between atoms: _384  and  _386
REMARK  162  A    between atoms: _386  and  _387
REMARK  163  A    between atoms: _386  and  _389
REMARK  164  A    between atoms: _389  and  _390
REMARK  165  A    between atoms: _390  and  _391
REMARK  166  A    between atoms: _393  and  _395
REMARK  167  A    between atoms: _395  and  _396
REMARK  168  A    between atoms: _395  and  _398
REMARK  169  A    between atoms: _398  and  _399
REMARK  170  A    between atoms: _402  and  _404
REMARK  171  A    between atoms: _404  and  _405
REMARK  172  A    between atoms: _407  and  _409
REMARK  173  A    between atoms: _409  and  _410
REMARK  174  A    between atoms: _412  and  _414
REMARK  175  A    between atoms: _414  and  _415
REMARK  176  A    between atoms: _414  and  _417
REMARK  177  A    between atoms: _417  and  _418
REMARK  178  A    between atoms: _421  and  _423
REMARK  179  A    between atoms: _423  and  _424
REMARK  180  A    between atoms: _426  and  _428
REMARK  181  A    between atoms: _428  and  _429
REMARK  182  A    between atoms: _431  and  _433
REMARK  183  A    between atoms: _433  and  _434
REMARK  184  A    between atoms: _433  and  _436
REMARK  185  A    between atoms: _436  and  _437
REMARK  186  A    between atoms: _443  and  _445
REMARK  187  A    between atoms: _445  and  _446
REMARK  188  A    between atoms: _445  and  _448
REMARK  189  A    between atoms: _448  and  _449
REMARK  190  A    between atoms: _452  and  _454
REMARK  191  A    between atoms: _454  and  _455
REMARK  192  A    between atoms: _454  and  _457
REMARK  193  A    between atoms: _457  and  _458
REMARK  194  A    between atoms: _461  and  _463
REMARK  195  A    between atoms: _463  and  _464
REMARK  196  A    between atoms: _463  and  _466
REMARK  197  A    between atoms: _466  and  _467
REMARK  198  A    between atoms: _471  and  _472
REMARK  199  A    between atoms: _477  and  _479
REMARK  200  A    between atoms: _479  and  _480
REMARK  201  A    between atoms: _479  and  _482
REMARK  202  A    between atoms: _485  and  _487
REMARK  203  A    between atoms: _487  and  _488
REMARK  204  A    between atoms: _487  and  _490
REMARK  205  A    between atoms: _490  and  _491
REMARK  206  A    between atoms: _496  and  _498
REMARK  207  A    between atoms: _498  and  _499
REMARK  208  A    between atoms: _498  and  _501
REMARK  209  A    between atoms: _501  and  _502
REMARK  210  A    between atoms: _505  and  _507
REMARK  211  A    between atoms: _507  and  _508
REMARK  212  A    between atoms: _507  and  _510
REMARK  213  A    between atoms: _510  and  _511
REMARK  214  A    between atoms: _514  and  _516
REMARK  215  A    between atoms: _516  and  _517
REMARK  216  A    between atoms: _519  and  _521
REMARK  217  A    between atoms: _521  and  _522
REMARK  218  A    between atoms: _521  and  _524
REMARK  219  A    between atoms: _524  and  _525
REMARK  220  A    between atoms: _525  and  _526
REMARK  221  A    between atoms: _526  and  _527
REMARK  222  A    between atoms: _536  and  _538
REMARK  223  A    between atoms: _538  and  _539
REMARK  224  A    between atoms: _538  and  _541
REMARK  225  A    between atoms: _541  and  _542
REMARK                            x       y       z     vdW  Elec       q    Type
REMARK                         _______ _______ _______ _____ _____    ______ ____
ROOT
ATOM      1  O   HOH     1       6.760  12.964  24.196  0.00  0.00    +0.000 OA
ENDROOT
TORSDOF 0
REMARK  Name = ../refined-set-2016/2i4u/2i4u_pocket.pdb
REMARK  225 active torsions:
REMARK  status: ('A' for Active; 'I' for Inactive)
REMARK    1  A    between atoms: _1  and  _3
REMARK    2  A    between atoms: _3  and  _4
REMARK    3  A    between atoms: _3  and  _6
REMARK    4  A    between atoms: _6  and  _7
REMARK    5  A    between atoms: _7  and  _8
REMARK    6  A    between atoms: _8  and  _9
REMARK    7  A    between atoms: _18  and  _20
REMARK    8  A    between atoms: _20  and  _21
REMARK    9  A    between atoms: _20  and  _23
REMARK   10  A    between atoms: _23  and  _24
REMARK   11  A    between atoms: _27  and  _29
REMARK   12  A    between atoms: _29  and  _30
REMARK   13  A    between atoms: _29  and  _32
REMARK   14  A    between atoms: _32  and  _33
REMARK   15  A    between atoms: _36  and  _38
REMARK   16  A    between atoms: _38  and  _39
REMARK   17  A    between atoms: _38  and  _41
REMARK   18  A    between atoms: _41  and  _42
REMARK   19  A    between atoms: _45  and  _47
REMARK   20  A    between atoms: _47  and  _48
REMARK   21  A    between atoms: _47  and  _50
REMARK   22  A    between atoms: _50  and  _51
REMARK   23  A    between atoms: _54  and  _56
REMARK   24  A    between atoms: _56  and  _57
REMARK   25  A    between atoms: _59  and  _61
REMARK   26  A    between atoms: _61  and  _62
REMARK   27  A    between atoms: _65  and  _67
REMARK   28  A    between atoms: _67  and  _68
REMARK   29  A    between atoms: _67  and  _70
REMARK   30  A    between atoms: _70  and  _71
REMARK   31  A    between atoms: _74  and  _76
REMARK   32  A    between atoms: _76  and  _77
REMARK   33  A    between atoms: _76  and  _79
REMARK   34  A    between atoms: _79  and  _80
REMARK   35  A    between atoms: _83  and  _85
REMARK   36  A    between atoms: _85  and  _86
REMARK   37  A    between atoms: _85  and  _88
REMARK   38  A    between atoms: _88  and  _89
REMARK   39  A    between atoms: _92  and  _94
REMARK   40  A    between atoms: _94  and  _95
REMARK   41  A    between atoms: _94  and  _97
REMARK   42  A    between atoms: _100  and  _102
REMARK   43  A    between atoms: _102  and  _103
REMARK   44  A    between atoms: _102  and  _105
REMARK   45  A    between atoms: _105  and  _106
REMARK   46  A    between atoms: _106  and  _107
REMARK   47  A    between atoms: _107  and  _108
REMARK   48  A    between atoms: _108  and  _109
REMARK   49  A    between atoms: _113  and  _115
REMARK   50  A    between atoms: _115  and  _116
REMARK   51  A    between atoms: _115  and  _118
REMARK   52  A    between atoms: _118  and  _119
REMARK   53  A    between atoms: _119  and  _120
REMARK   54  A    between atoms: _122  and  _124
REMARK   55  A    between atoms: _124  and  _125
REMARK   56  A    between atoms: _124  and  _127
REMARK   57  A    between atoms: _127  and  _128
REMARK   58  A    between atoms: _131  and  _133
REMARK   59  A    between atoms: _133  and  _134
REMARK   60  A    between atoms: _136  and  _138
REMARK   61  A    between atoms: _138  and  _139
REMARK   62  A    between atoms: _141  and  _143
REMARK   63  A    between atoms: _143  and  _144
REMARK   64  A    between atoms: _143  and  _146
REMARK   65  A    between atoms: _146  and  _147
REMARK   66  A    between atoms: _150  and  _152
REMARK   67  A    between atoms: _152  and  _153
REMARK   68  A    between atoms: _155  and  _157
REMARK   69  A    between atoms: _157  and  _158
REMARK   70  A    between atoms: _160  and  _162
REMARK   71  A    between atoms: _162  and  _163
REMARK   72  A    between atoms: _162  and  _165
REMARK   73  A    between atoms: _165  and  _166
REMARK   74  A    between atoms: _169  and  _171
REMARK   75  A    between atoms: _171  and  _172
REMARK   76  A    between atoms: _171  and  _174
REMARK   77  A    between atoms: _177  and  _179
REMARK   78  A    between atoms: _179  and  _180
REMARK   79  A    between atoms: _179  and  _182
REMARK   80  A    between atoms: _182  and  _183
REMARK   81  A    between atoms: _186  and  _188
REMARK   82  A    between atoms: _188  and  _189
REMARK   83  A    between atoms: _188  and  _191
REMARK   84  A    between atoms: _191  and  _192
REMARK   85  A    between atoms: _196  and  _197
REMARK   86  A    between atoms: _202  and  _204
REMARK   87  A    between atoms: _204  and  _205
REMARK   88  A    between atoms: _204  and  _207
REMARK   89  A    between atoms: _210  and  _212
REMARK   90  A    between atoms: _212  and  _213
REMARK   91  A    between atoms: _212  and  _215
REMARK   92  A    between atoms: _215  and  _216
REMARK   93  A    between atoms: _221  and  _223
REMARK   94  A    between atoms: _223  and  _224
REMARK   95  A    between atoms: _223  and  _226
REMARK   96  A    between atoms: _226  and  _227
REMARK   97  A    between atoms: _230  and  _232
REMARK   98  A    between atoms: _232  and  _233
REMARK   99  A    between atoms: _232  and  _235
REMARK  100  A    between atoms: _235  and  _236
REMARK  101  A    between atoms: _239  and  _241
REMARK  102  A    between atoms: _241  and  _242
REMARK  103  A    between atoms: _244  and  _246
REMARK  104  A    between atoms: _246  and  _247
REMARK  105  A    between atoms: _246  and  _249
REMARK  106  A    between atoms: _249  and  _250
REMARK  107  A    between atoms: _250  and  _251
REMARK  108  A    between atoms: _251  and  _252
REMARK  109  A    between atoms: _261  and  _263
REMARK  110  A    between atoms: _263  and  _264
REMARK  111  A    between atoms: _263  and  _266
REMARK  112  A    between atoms: _266  and  _267
REMARK  113  A    between atoms: _272  and  _274
REMARK  114  A    between atoms: _274  and  _275
REMARK  115  A    between atoms: _274  and  _277
REMARK  116  A    between atoms: _277  and  _278
REMARK  117  A    between atoms: _278  and  _279
REMARK  118  A    between atoms: _279  and  _280
REMARK  119  A    between atoms: _289  and  _291
REMARK  120  A    between atoms: _291  and  _292
REMARK  121  A    between atoms: _291  and  _294
REMARK  122  A    between atoms: _294  and  _295
REMARK  123  A    between atoms: _298  and  _300
REMARK  124  A    between atoms: _300  and  _301
REMARK  125  A    between atoms: _300  and  _303
REMARK  126  A    between atoms: _303  and  _304
REMARK  127  A    between atoms: _307  and  _309
REMARK  128  A    between atoms: _309  and  _310
REMARK  129  A    between atoms: _309  and  _312
REMARK  130  A    between atoms: _312  and  _313
REMARK  131  A    between atoms: _316  and  _318
REMARK  132  A    between atoms: _318  and  _319
REMARK  133  A    between atoms: _318  and  _321
REMARK  134  A    between atoms: _321  and  _322
REMARK  135  A    between atoms: _325  and  _327
REMARK  136  A    between atoms: _327  and  _328
REMARK  137  A    between atoms: _330  and  _332
REMARK  138  A    between atoms: _332  and  _333
REMARK  139  A    between atoms: _336  and  _338
REMARK  140  A    between atoms: _338  and  _339
REMARK  141  A    between atoms: _338  and  _341
REMARK  142  A    between atoms: _341  and  _342
REMARK  143  A    between atoms: _345  and  _347
REMARK  144  A    between atoms: _347  and  _348
REMARK  145  A    between atoms: _347  and  _350
REMARK  146  A    between atoms: _350  and  _351
REMARK  147  A    between atoms: _354  and  _356
REMARK  148  A    between atoms: _356  and  _357
REMARK  149  A    between atoms: _356  and  _359
REMARK  150  A    between atoms: _359  and  _360
REMARK  151  A    between atoms: _363  and  _365
REMARK  152  A    between atoms: _365  and  _366
REMARK  153  A    between atoms: _365  and  _368
REMARK  154  A    between atoms: _371  and  _373
REMARK  155  A    between atoms: _373  and  _374
REMARK  156  A    between atoms: _373  and  _376
REMARK  157  A    between atoms: _376  and  _377
REMARK  158  A    between atoms: _377  and  _378
REMARK  159  A    between atoms: _378  and  _379
REMARK  160  A    between atoms: _379  and  _380
REMARK  161  A    between atoms: _384  and  _386
REMARK  162  A    between atoms: _386  and  _387
REMARK  163  A    between atoms: _386  and  _389
REMARK  164  A    between atoms: _389  and  _390
REMARK  165  A    between atoms: _390  and  _391
REMARK  166  A    between atoms: _393  and  _395
REMARK  167  A    between atoms: _395  and  _396
REMARK  168  A    between atoms: _395  and  _398
REMARK  169  A    between atoms: _398  and  _399
REMARK  170  A    between atoms: _402  and  _404
REMARK  171  A    between atoms: _404  and  _405
REMARK  172  A    between atoms: _407  and  _409
REMARK  173  A    between atoms: _409  and  _410
REMARK  174  A    between atoms: _412  and  _414
REMARK  175  A    between atoms: _414  and  _415
REMARK  176  A    between atoms: _414  and  _417
REMARK  177  A    between atoms: _417  and  _418
REMARK  178  A    between atoms: _421  and  _423
REMARK  179  A    between atoms: _423  and  _424
REMARK  180  A    between atoms: _426  and  _428
REMARK  181  A    between atoms: _428  and  _429
REMARK  182  A    between atoms: _431  and  _433
REMARK  183  A    between atoms: _433  and  _434
REMARK  184  A    between atoms: _433  and  _436
REMARK  185  A    between atoms: _436  and  _437
REMARK  186  A    between atoms: _443  and  _445
REMARK  187  A    between atoms: _445  and  _446
REMARK  188  A    between atoms: _445  and  _448
REMARK  189  A    between atoms: _448  and  _449
REMARK  190  A    between atoms: _452  and  _454
REMARK  191  A    between atoms: _454  and  _455
REMARK  192  A    between atoms: _454  and  _457
REMARK  193  A    between atoms: _457  and  _458
REMARK  194  A    between atoms: _461  and  _463
REMARK  195  A    between atoms: _463  and  _464
REMARK  196  A    between atoms: _463  and  _466
REMARK  197  A    between atoms: _466  and  _467
REMARK  198  A    between atoms: _471  and  _472
REMARK  199  A    between atoms: _477  and  _479
REMARK  200  A    between atoms: _479  and  _480
REMARK  201  A    between atoms: _479  and  _482
REMARK  202  A    between atoms: _485  and  _487
REMARK  203  A    between atoms: _487  and  _488
REMARK  204  A    between atoms: _487  and  _490
REMARK  205  A    between atoms: _490  and  _491
REMARK  206  A    between atoms: _496  and  _498
REMARK  207  A    between atoms: _498  and  _499
REMARK  208  A    between atoms: _498  and  _501
REMARK  209  A    between atoms: _501  and  _502
REMARK  210  A    between atoms: _505  and  _507
REMARK  211  A    between atoms: _507  and  _508
REMARK  212  A    between atoms: _507  and  _510
REMARK  213  A    between atoms: _510  and  _511
REMARK  214  A    between atoms: _514  and  _516
REMARK  215  A    between atoms: _516  and  _517
REMARK  216  A    between atoms: _519  and  _521
REMARK  217  A    between atoms: _521  and  _522
REMARK  218  A    between atoms: _521  and  _524
REMARK  219  A    between atoms: _524  and  _525
REMARK  220  A    between atoms: _525  and  _526
REMARK  221  A    between atoms: _526  and  _527
REMARK  222  A    between atoms: _536  and  _538
REMARK  223  A    between atoms: _538  and  _539
REMARK  224  A    between atoms: _538  and  _541
REMARK  225  A    between atoms: _541  and  _542
REMARK                            x       y       z     vdW  Elec       q    Type
REMARK                         _______ _______ _______ _____ _____    ______ ____
ROOT
ATOM      1  O   HOH     1      12.374  16.395  11.648  0.00  0.00    +0.000 OA
ENDROOT
TORSDOF 0
REMARK  Name = ../refined-set-2016/2i4u/2i4u_pocket.pdb
REMARK  225 active torsions:
REMARK  status: ('A' for Active; 'I' for Inactive)
REMARK    1  A    between atoms: _1  and  _3
REMARK    2  A    between atoms: _3  and  _4
REMARK    3  A    between atoms: _3  and  _6
REMARK    4  A    between atoms: _6  and  _7
REMARK    5  A    between atoms: _7  and  _8
REMARK    6  A    between atoms: _8  and  _9
REMARK    7  A    between atoms: _18  and  _20
REMARK    8  A    between atoms: _20  and  _21
REMARK    9  A    between atoms: _20  and  _23
REMARK   10  A    between atoms: _23  and  _24
REMARK   11  A    between atoms: _27  and  _29
REMARK   12  A    between atoms: _29  and  _30
REMARK   13  A    between atoms: _29  and  _32
REMARK   14  A    between atoms: _32  and  _33
REMARK   15  A    between atoms: _36  and  _38
REMARK   16  A    between atoms: _38  and  _39
REMARK   17  A    between atoms: _38  and  _41
REMARK   18  A    between atoms: _41  and  _42
REMARK   19  A    between atoms: _45  and  _47
REMARK   20  A    between atoms: _47  and  _48
REMARK   21  A    between atoms: _47  and  _50
REMARK   22  A    between atoms: _50  and  _51
REMARK   23  A    between atoms: _54  and  _56
REMARK   24  A    between atoms: _56  and  _57
REMARK   25  A    between atoms: _59  and  _61
REMARK   26  A    between atoms: _61  and  _62
REMARK   27  A    between atoms: _65  and  _67
REMARK   28  A    between atoms: _67  and  _68
REMARK   29  A    between atoms: _67  and  _70
REMARK   30  A    between atoms: _70  and  _71
REMARK   31  A    between atoms: _74  and  _76
REMARK   32  A    between atoms: _76  and  _77
REMARK   33  A    between atoms: _76  and  _79
REMARK   34  A    between atoms: _79  and  _80
REMARK   35  A    between atoms: _83  and  _85
REMARK   36  A    between atoms: _85  and  _86
REMARK   37  A    between atoms: _85  and  _88
REMARK   38  A    between atoms: _88  and  _89
REMARK   39  A    between atoms: _92  and  _94
REMARK   40  A    between atoms: _94  and  _95
REMARK   41  A    between atoms: _94  and  _97
REMARK   42  A    between atoms: _100  and  _102
REMARK   43  A    between atoms: _102  and  _103
REMARK   44  A    between atoms: _102  and  _105
REMARK   45  A    between atoms: _105  and  _106
REMARK   46  A    between atoms: _106  and  _107
REMARK   47  A    between atoms: _107  and  _108
REMARK   48  A    between atoms: _108  and  _109
REMARK   49  A    between atoms: _113  and  _115
REMARK   50  A    between atoms: _115  and  _116
REMARK   51  A    between atoms: _115  and  _118
REMARK   52  A    between atoms: _118  and  _119
REMARK   53  A    between atoms: _119  and  _120
REMARK   54  A    between atoms: _122  and  _124
REMARK   55  A    between atoms: _124  and  _125
REMARK   56  A    between atoms: _124  and  _127
REMARK   57  A    between atoms: _127  and  _128
REMARK   58  A    between atoms: _131  and  _133
REMARK   59  A    between atoms: _133  and  _134
REMARK   60  A    between atoms: _136  and  _138
REMARK   61  A    between atoms: _138  and  _139
REMARK   62  A    between atoms: _141  and  _143
REMARK   63  A    between atoms: _143  and  _144
REMARK   64  A    between atoms: _143  and  _146
REMARK   65  A    between atoms: _146  and  _147
REMARK   66  A    between atoms: _150  and  _152
REMARK   67  A    between atoms: _152  and  _153
REMARK   68  A    between atoms: _155  and  _157
REMARK   69  A    between atoms: _157  and  _158
REMARK   70  A    between atoms: _160  and  _162
REMARK   71  A    between atoms: _162  and  _163
REMARK   72  A    between atoms: _162  and  _165
REMARK   73  A    between atoms: _165  and  _166
REMARK   74  A    between atoms: _169  and  _171
REMARK   75  A    between atoms: _171  and  _172
REMARK   76  A    between atoms: _171  and  _174
REMARK   77  A    between atoms: _177  and  _179
REMARK   78  A    between atoms: _179  and  _180
REMARK   79  A    between atoms: _179  and  _182
REMARK   80  A    between atoms: _182  and  _183
REMARK   81  A    between atoms: _186  and  _188
REMARK   82  A    between atoms: _188  and  _189
REMARK   83  A    between atoms: _188  and  _191
REMARK   84  A    between atoms: _191  and  _192
REMARK   85  A    between atoms: _196  and  _197
REMARK   86  A    between atoms: _202  and  _204
REMARK   87  A    between atoms: _204  and  _205
REMARK   88  A    between atoms: _204  and  _207
REMARK   89  A    between atoms: _210  and  _212
REMARK   90  A    between atoms: _212  and  _213
REMARK   91  A    between atoms: _212  and  _215
REMARK   92  A    between atoms: _215  and  _216
REMARK   93  A    between atoms: _221  and  _223
REMARK   94  A    between atoms: _223  and  _224
REMARK   95  A    between atoms: _223  and  _226
REMARK   96  A    between atoms: _226  and  _227
REMARK   97  A    between atoms: _230  and  _232
REMARK   98  A    between atoms: _232  and  _233
REMARK   99  A    between atoms: _232  and  _235
REMARK  100  A    between atoms: _235  and  _236
REMARK  101  A    between atoms: _239  and  _241
REMARK  102  A    between atoms: _241  and  _242
REMARK  103  A    between atoms: _244  and  _246
REMARK  104  A    between atoms: _246  and  _247
REMARK  105  A    between atoms: _246  and  _249
REMARK  106  A    between atoms: _249  and  _250
REMARK  107  A    between atoms: _250  and  _251
REMARK  108  A    between atoms: _251  and  _252
REMARK  109  A    between atoms: _261  and  _263
REMARK  110  A    between atoms: _263  and  _264
REMARK  111  A    between atoms: _263  and  _266
REMARK  112  A    between atoms: _266  and  _267
REMARK  113  A    between atoms: _272  and  _274
REMARK  114  A    between atoms: _274  and  _275
REMARK  115  A    between atoms: _274  and  _277
REMARK  116  A    between atoms: _277  and  _278
REMARK  117  A    between atoms: _278  and  _279
REMARK  118  A    between atoms: _279  and  _280
REMARK  119  A    between atoms: _289  and  _291
REMARK  120  A    between atoms: _291  and  _292
REMARK  121  A    between atoms: _291  and  _294
REMARK  122  A    between atoms: _294  and  _295
REMARK  123  A    between atoms: _298  and  _300
REMARK  124  A    between atoms: _300  and  _301
REMARK  125  A    between atoms: _300  and  _303
REMARK  126  A    between atoms: _303  and  _304
REMARK  127  A    between atoms: _307  and  _309
REMARK  128  A    between atoms: _309  and  _310
REMARK  129  A    between atoms: _309  and  _312
REMARK  130  A    between atoms: _312  and  _313
REMARK  131  A    between atoms: _316  and  _318
REMARK  132  A    between atoms: _318  and  _319
REMARK  133  A    between atoms: _318  and  _321
REMARK  134  A    between atoms: _321  and  _322
REMARK  135  A    between atoms: _325  and  _327
REMARK  136  A    between atoms: _327  and  _328
REMARK  137  A    between atoms: _330  and  _332
REMARK  138  A    between atoms: _332  and  _333
REMARK  139  A    between atoms: _336  and  _338
REMARK  140  A    between atoms: _338  and  _339
REMARK  141  A    between atoms: _338  and  _341
REMARK  142  A    between atoms: _341  and  _342
REMARK  143  A    between atoms: _345  and  _347
REMARK  144  A    between atoms: _347  and  _348
REMARK  145  A    between atoms: _347  and  _350
REMARK  146  A    between atoms: _350  and  _351
REMARK  147  A    between atoms: _354  and  _356
REMARK  148  A    between atoms: _356  and  _357
REMARK  149  A    between atoms: _356  and  _359
REMARK  150  A    between atoms: _359  and  _360
REMARK  151  A    between atoms: _363  and  _365
REMARK  152  A    between atoms: _365  and  _366
REMARK  153  A    between atoms: _365  and  _368
REMARK  154  A    between atoms: _371  and  _373
REMARK  155  A    between atoms: _373  and  _374
REMARK  156  A    between atoms: _373  and  _376
REMARK  157  A    between atoms: _376  and  _377
REMARK  158  A    between atoms: _377  and  _378
REMARK  159  A    between atoms: _378  and  _379
REMARK  160  A    between atoms: _379  and  _380
REMARK  161  A    between atoms: _384  and  _386
REMARK  162  A    between atoms: _386  and  _387
REMARK  163  A    between atoms: _386  and  _389
REMARK  164  A    between atoms: _389  and  _390
REMARK  165  A    between atoms: _390  and  _391
REMARK  166  A    between atoms: _393  and  _395
REMARK  167  A    between atoms: _395  and  _396
REMARK  168  A    between atoms: _395  and  _398
REMARK  169  A    between atoms: _398  and  _399
REMARK  170  A    between atoms: _402  and  _404
REMARK  171  A    between atoms: _404  and  _405
REMARK  172  A    between atoms: _407  and  _409
REMARK  173  A    between atoms: _409  and  _410
REMARK  174  A    between atoms: _412  and  _414
REMARK  175  A    between atoms: _414  and  _415
REMARK  176  A    between atoms: _414  and  _417
REMARK  177  A    between atoms: _417  and  _418
REMARK  178  A    between atoms: _421  and  _423
REMARK  179  A    between atoms: _423  and  _424
REMARK  180  A    between atoms: _426  and  _428
REMARK  181  A    between atoms: _428  and  _429
REMARK  182  A    between atoms: _431  and  _433
REMARK  183  A    between atoms: _433  and  _434
REMARK  184  A    between atoms: _433  and  _436
REMARK  185  A    between atoms: _436  and  _437
REMARK  186  A    between atoms: _443  and  _445
REMARK  187  A    between atoms: _445  and  _446
REMARK  188  A    between atoms: _445  and  _448
REMARK  189  A    between atoms: _448  and  _449
REMARK  190  A    between atoms: _452  and  _454
REMARK  191  A    between atoms: _454  and  _455
REMARK  192  A    between atoms: _454  and  _457
REMARK  193  A    between atoms: _457  and  _458
REMARK  194  A    between atoms: _461  and  _463
REMARK  195  A    between atoms: _463  and  _464
REMARK  196  A    between atoms: _463  and  _466
REMARK  197  A    between atoms: _466  and  _467
REMARK  198  A    between atoms: _471  and  _472
REMARK  199  A    between atoms: _477  and  _479
REMARK  200  A    between atoms: _479  and  _480
REMARK  201  A    between atoms: _479  and  _482
REMARK  202  A    between atoms: _485  and  _487
REMARK  203  A    between atoms: _487  and  _488
REMARK  204  A    between atoms: _487  and  _490
REMARK  205  A    between atoms: _490  and  _491
REMARK  206  A    between atoms: _496  and  _498
REMARK  207  A    between atoms: _498  and  _499
REMARK  208  A    between atoms: _498  and  _501
REMARK  209  A    between atoms: _501  and  _502
REMARK  210  A    between atoms: _505  and  _507
REMARK  211  A    between atoms: _507  and  _508
REMARK  212  A    between atoms: _507  and  _510
REMARK  213  A    between atoms: _510  and  _511
REMARK  214  A    between atoms: _514  and  _516
REMARK  215  A    between atoms: _516  and  _517
REMARK  216  A    between atoms: _519  and  _521
REMARK  217  A    between atoms: _521  and  _522
REMARK  218  A    between atoms: _521  and  _524
REMARK  219  A    between atoms: _524  and  _525
REMARK  220  A    between atoms: _525  and  _526
REMARK  221  A    between atoms: _526  and  _527
REMARK  222  A    between atoms: _536  and  _538
REMARK  223  A    between atoms: _538  and  _539
REMARK  224  A    between atoms: _538  and  _541
REMARK  225  A    between atoms: _541  and  _542
REMARK                            x       y       z     vdW  Elec       q    Type
REMARK                         _______ _______ _______ _____ _____    ______ ____
ROOT
ATOM      1  O   HOH     1      18.512  17.437   8.806  0.00  0.00    +0.000 OA
ENDROOT
TORSDOF 0
REMARK  Name = ../refined-set-2016/2i4u/2i4u_pocket.pdb
REMARK  225 active torsions:
REMARK  status: ('A' for Active; 'I' for Inactive)
REMARK    1  A    between atoms: _1  and  _3
REMARK    2  A    between atoms: _3  and  _4
REMARK    3  A    between atoms: _3  and  _6
REMARK    4  A    between atoms: _6  and  _7
REMARK    5  A    between atoms: _7  and  _8
REMARK    6  A    between atoms: _8  and  _9
REMARK    7  A    between atoms: _18  and  _20
REMARK    8  A    between atoms: _20  and  _21
REMARK    9  A    between atoms: _20  and  _23
REMARK   10  A    between atoms: _23  and  _24
REMARK   11  A    between atoms: _27  and  _29
REMARK   12  A    between atoms: _29  and  _30
REMARK   13  A    between atoms: _29  and  _32
REMARK   14  A    between atoms: _32  and  _33
REMARK   15  A    between atoms: _36  and  _38
REMARK   16  A    between atoms: _38  and  _39
REMARK   17  A    between atoms: _38  and  _41
REMARK   18  A    between atoms: _41  and  _42
REMARK   19  A    between atoms: _45  and  _47
REMARK   20  A    between atoms: _47  and  _48
REMARK   21  A    between atoms: _47  and  _50
REMARK   22  A    between atoms: _50  and  _51
REMARK   23  A    between atoms: _54  and  _56
REMARK   24  A    between atoms: _56  and  _57
REMARK   25  A    between atoms: _59  and  _61
REMARK   26  A    between atoms: _61  and  _62
REMARK   27  A    between atoms: _65  and  _67
REMARK   28  A    between atoms: _67  and  _68
REMARK   29  A    between atoms: _67  and  _70
REMARK   30  A    between atoms: _70  and  _71
REMARK   31  A    between atoms: _74  and  _76
REMARK   32  A    between atoms: _76  and  _77
REMARK   33  A    between atoms: _76  and  _79
REMARK   34  A    between atoms: _79  and  _80
REMARK   35  A    between atoms: _83  and  _85
REMARK   36  A    between atoms: _85  and  _86
REMARK   37  A    between atoms: _85  and  _88
REMARK   38  A    between atoms: _88  and  _89
REMARK   39  A    between atoms: _92  and  _94
REMARK   40  A    between atoms: _94  and  _95
REMARK   41  A    between atoms: _94  and  _97
REMARK   42  A    between atoms: _100  and  _102
REMARK   43  A    between atoms: _102  and  _103
REMARK   44  A    between atoms: _102  and  _105
REMARK   45  A    between atoms: _105  and  _106
REMARK   46  A    between atoms: _106  and  _107
REMARK   47  A    between atoms: _107  and  _108
REMARK   48  A    between atoms: _108  and  _109
REMARK   49  A    between atoms: _113  and  _115
REMARK   50  A    between atoms: _115  and  _116
REMARK   51  A    between atoms: _115  and  _118
REMARK   52  A    between atoms: _118  and  _119
REMARK   53  A    between atoms: _119  and  _120
REMARK   54  A    between atoms: _122  and  _124
REMARK   55  A    between atoms: _124  and  _125
REMARK   56  A    between atoms: _124  and  _127
REMARK   57  A    between atoms: _127  and  _128
REMARK   58  A    between atoms: _131  and  _133
REMARK   59  A    between atoms: _133  and  _134
REMARK   60  A    between atoms: _136  and  _138
REMARK   61  A    between atoms: _138  and  _139
REMARK   62  A    between atoms: _141  and  _143
REMARK   63  A    between atoms: _143  and  _144
REMARK   64  A    between atoms: _143  and  _146
REMARK   65  A    between atoms: _146  and  _147
REMARK   66  A    between atoms: _150  and  _152
REMARK   67  A    between atoms: _152  and  _153
REMARK   68  A    between atoms: _155  and  _157
REMARK   69  A    between atoms: _157  and  _158
REMARK   70  A    between atoms: _160  and  _162
REMARK   71  A    between atoms: _162  and  _163
REMARK   72  A    between atoms: _162  and  _165
REMARK   73  A    between atoms: _165  and  _166
REMARK   74  A    between atoms: _169  and  _171
REMARK   75  A    between atoms: _171  and  _172
REMARK   76  A    between atoms: _171  and  _174
REMARK   77  A    between atoms: _177  and  _179
REMARK   78  A    between atoms: _179  and  _180
REMARK   79  A    between atoms: _179  and  _182
REMARK   80  A    between atoms: _182  and  _183
REMARK   81  A    between atoms: _186  and  _188
REMARK   82  A    between atoms: _188  and  _189
REMARK   83  A    between atoms: _188  and  _191
REMARK   84  A    between atoms: _191  and  _192
REMARK   85  A    between atoms: _196  and  _197
REMARK   86  A    between atoms: _202  and  _204
REMARK   87  A    between atoms: _204  and  _205
REMARK   88  A    between atoms: _204  and  _207
REMARK   89  A    between atoms: _210  and  _212
REMARK   90  A    between atoms: _212  and  _213
REMARK   91  A    between atoms: _212  and  _215
REMARK   92  A    between atoms: _215  and  _216
REMARK   93  A    between atoms: _221  and  _223
REMARK   94  A    between atoms: _223  and  _224
REMARK   95  A    between atoms: _223  and  _226
REMARK   96  A    between atoms: _226  and  _227
REMARK   97  A    between atoms: _230  and  _232
REMARK   98  A    between atoms: _232  and  _233
REMARK   99  A    between atoms: _232  and  _235
REMARK  100  A    between atoms: _235  and  _236
REMARK  101  A    between atoms: _239  and  _241
REMARK  102  A    between atoms: _241  and  _242
REMARK  103  A    between atoms: _244  and  _246
REMARK  104  A    between atoms: _246  and  _247
REMARK  105  A    between atoms: _246  and  _249
REMARK  106  A    between atoms: _249  and  _250
REMARK  107  A    between atoms: _250  and  _251
REMARK  108  A    between atoms: _251  and  _252
REMARK  109  A    between atoms: _261  and  _263
REMARK  110  A    between atoms: _263  and  _264
REMARK  111  A    between atoms: _263  and  _266
REMARK  112  A    between atoms: _266  and  _267
REMARK  113  A    between atoms: _272  and  _274
REMARK  114  A    between atoms: _274  and  _275
REMARK  115  A    between atoms: _274  and  _277
REMARK  116  A    between atoms: _277  and  _278
REMARK  117  A    between atoms: _278  and  _279
REMARK  118  A    between atoms: _279  and  _280
REMARK  119  A    between atoms: _289  and  _291
REMARK  120  A    between atoms: _291  and  _292
REMARK  121  A    between atoms: _291  and  _294
REMARK  122  A    between atoms: _294  and  _295
REMARK  123  A    between atoms: _298  and  _300
REMARK  124  A    between atoms: _300  and  _301
REMARK  125  A    between atoms: _300  and  _303
REMARK  126  A    between atoms: _303  and  _304
REMARK  127  A    between atoms: _307  and  _309
REMARK  128  A    between atoms: _309  and  _310
REMARK  129  A    between atoms: _309  and  _312
REMARK  130  A    between atoms: _312  and  _313
REMARK  131  A    between atoms: _316  and  _318
REMARK  132  A    between atoms: _318  and  _319
REMARK  133  A    between atoms: _318  and  _321
REMARK  134  A    between atoms: _321  and  _322
REMARK  135  A    between atoms: _325  and  _327
REMARK  136  A    between atoms: _327  and  _328
REMARK  137  A    between atoms: _330  and  _332
REMARK  138  A    between atoms: _332  and  _333
REMARK  139  A    between atoms: _336  and  _338
REMARK  140  A    between atoms: _338  and  _339
REMARK  141  A    between atoms: _338  and  _341
REMARK  142  A    between atoms: _341  and  _342
REMARK  143  A    between atoms: _345  and  _347
REMARK  144  A    between atoms: _347  and  _348
REMARK  145  A    between atoms: _347  and  _350
REMARK  146  A    between atoms: _350  and  _351
REMARK  147  A    between atoms: _354  and  _356
REMARK  148  A    between atoms: _356  and  _357
REMARK  149  A    between atoms: _356  and  _359
REMARK  150  A    between atoms: _359  and  _360
REMARK  151  A    between atoms: _363  and  _365
REMARK  152  A    between atoms: _365  and  _366
REMARK  153  A    between atoms: _365  and  _368
REMARK  154  A    between atoms: _371  and  _373
REMARK  155  A    between atoms: _373  and  _374
REMARK  156  A    between atoms: _373  and  _376
REMARK  157  A    between atoms: _376  and  _377
REMARK  158  A    between atoms: _377  and  _378
REMARK  159  A    between atoms: _378  and  _379
REMARK  160  A    between atoms: _379  and  _380
REMARK  161  A    between atoms: _384  and  _386
REMARK  162  A    between atoms: _386  and  _387
REMARK  163  A    between atoms: _386  and  _389
REMARK  164  A    between atoms: _389  and  _390
REMARK  165  A    between atoms: _390  and  _391
REMARK  166  A    between atoms: _393  and  _395
REMARK  167  A    between atoms: _395  and  _396
REMARK  168  A    between atoms: _395  and  _398
REMARK  169  A    between atoms: _398  and  _399
REMARK  170  A    between atoms: _402  and  _404
REMARK  171  A    between atoms: _404  and  _405
REMARK  172  A    between atoms: _407  and  _409
REMARK  173  A    between atoms: _409  and  _410
REMARK  174  A    between atoms: _412  and  _414
REMARK  175  A    between atoms: _414  and  _415
REMARK  176  A    between atoms: _414  and  _417
REMARK  177  A    between atoms: _417  and  _418
REMARK  178  A    between atoms: _421  and  _423
REMARK  179  A    between atoms: _423  and  _424
REMARK  180  A    between atoms: _426  and  _428
REMARK  181  A    between atoms: _428  and  _429
REMARK  182  A    between atoms: _431  and  _433
REMARK  183  A    between atoms: _433  and  _434
REMARK  184  A    between atoms: _433  and  _436
REMARK  185  A    between atoms: _436  and  _437
REMARK  186  A    between atoms: _443  and  _445
REMARK  187  A    between atoms: _445  and  _446
REMARK  188  A    between atoms: _445  and  _448
REMARK  189  A    between atoms: _448  and  _449
REMARK  190  A    between atoms: _452  and  _454
REMARK  191  A    between atoms: _454  and  _455
REMARK  192  A    between atoms: _454  and  _457
REMARK  193  A    between atoms: _457  and  _458
REMARK  194  A    between atoms: _461  and  _463
REMARK  195  A    between atoms: _463  and  _464
REMARK  196  A    between atoms: _463  and  _466
REMARK  197  A    between atoms: _466  and  _467
REMARK  198  A    between atoms: _471  and  _472
REMARK  199  A    between atoms: _477  and  _479
REMARK  200  A    between atoms: _479  and  _480
REMARK  201  A    between atoms: _479  and  _482
REMARK  202  A    between atoms: _485  and  _487
REMARK  203  A    between atoms: _487  and  _488
REMARK  204  A    between atoms: _487  and  _490
REMARK  205  A    between atoms: _490  and  _491
REMARK  206  A    between atoms: _496  and  _498
REMARK  207  A    between atoms: _498  and  _499
REMARK  208  A    between atoms: _498  and  _501
REMARK  209  A    between atoms: _501  and  _502
REMARK  210  A    between atoms: _505  and  _507
REMARK  211  A    between atoms: _507  and  _508
REMARK  212  A    between atoms: _507  and  _510
REMARK  213  A    between atoms: _510  and  _511
REMARK  214  A    between atoms: _514  and  _516
REMARK  215  A    between atoms: _516  and  _517
REMARK  216  A    between atoms: _519  and  _521
REMARK  217  A    between atoms: _521  and  _522
REMARK  218  A    between atoms: _521  and  _524
REMARK  219  A    between atoms: _524  and  _525
REMARK  220  A    between atoms: _525  and  _526
REMARK  221  A    between atoms: _526  and  _527
REMARK  222  A    between atoms: _536  and  _538
REMARK  223  A    between atoms: _538  and  _539
REMARK  224  A    between atoms: _538  and  _541
REMARK  225  A    between atoms: _541  and  _542
REMARK                            x       y       z     vdW  Elec       q    Type
REMARK                         _______ _______ _______ _____ _____    ______ ____
ROOT
ATOM      1  O   HOH     1      10.708  16.396  13.874  0.00  0.00    +0.000 OA
ENDROOT
TORSDOF 0
REMARK  Name = ../refined-set-2016/2i4u/2i4u_pocket.pdb
REMARK  225 active torsions:
REMARK  status: ('A' for Active; 'I' for Inactive)
REMARK    1  A    between atoms: _1  and  _3
REMARK    2  A    between atoms: _3  and  _4
REMARK    3  A    between atoms: _3  and  _6
REMARK    4  A    between atoms: _6  and  _7
REMARK    5  A    between atoms: _7  and  _8
REMARK    6  A    between atoms: _8  and  _9
REMARK    7  A    between atoms: _18  and  _20
REMARK    8  A    between atoms: _20  and  _21
REMARK    9  A    between atoms: _20  and  _23
REMARK   10  A    between atoms: _23  and  _24
REMARK   11  A    between atoms: _27  and  _29
REMARK   12  A    between atoms: _29  and  _30
REMARK   13  A    between atoms: _29  and  _32
REMARK   14  A    between atoms: _32  and  _33
REMARK   15  A    between atoms: _36  and  _38
REMARK   16  A    between atoms: _38  and  _39
REMARK   17  A    between atoms: _38  and  _41
REMARK   18  A    between atoms: _41  and  _42
REMARK   19  A    between atoms: _45  and  _47
REMARK   20  A    between atoms: _47  and  _48
REMARK   21  A    between atoms: _47  and  _50
REMARK   22  A    between atoms: _50  and  _51
REMARK   23  A    between atoms: _54  and  _56
REMARK   24  A    between atoms: _56  and  _57
REMARK   25  A    between atoms: _59  and  _61
REMARK   26  A    between atoms: _61  and  _62
REMARK   27  A    between atoms: _65  and  _67
REMARK   28  A    between atoms: _67  and  _68
REMARK   29  A    between atoms: _67  and  _70
REMARK   30  A    between atoms: _70  and  _71
REMARK   31  A    between atoms: _74  and  _76
REMARK   32  A    between atoms: _76  and  _77
REMARK   33  A    between atoms: _76  and  _79
REMARK   34  A    between atoms: _79  and  _80
REMARK   35  A    between atoms: _83  and  _85
REMARK   36  A    between atoms: _85  and  _86
REMARK   37  A    between atoms: _85  and  _88
REMARK   38  A    between atoms: _88  and  _89
REMARK   39  A    between atoms: _92  and  _94
REMARK   40  A    between atoms: _94  and  _95
REMARK   41  A    between atoms: _94  and  _97
REMARK   42  A    between atoms: _100  and  _102
REMARK   43  A    between atoms: _102  and  _103
REMARK   44  A    between atoms: _102  and  _105
REMARK   45  A    between atoms: _105  and  _106
REMARK   46  A    between atoms: _106  and  _107
REMARK   47  A    between atoms: _107  and  _108
REMARK   48  A    between atoms: _108  and  _109
REMARK   49  A    between atoms: _113  and  _115
REMARK   50  A    between atoms: _115  and  _116
REMARK   51  A    between atoms: _115  and  _118
REMARK   52  A    between atoms: _118  and  _119
REMARK   53  A    between atoms: _119  and  _120
REMARK   54  A    between atoms: _122  and  _124
REMARK   55  A    between atoms: _124  and  _125
REMARK   56  A    between atoms: _124  and  _127
REMARK   57  A    between atoms: _127  and  _128
REMARK   58  A    between atoms: _131  and  _133
REMARK   59  A    between atoms: _133  and  _134
REMARK   60  A    between atoms: _136  and  _138
REMARK   61  A    between atoms: _138  and  _139
REMARK   62  A    between atoms: _141  and  _143
REMARK   63  A    between atoms: _143  and  _144
REMARK   64  A    between atoms: _143  and  _146
REMARK   65  A    between atoms: _146  and  _147
REMARK   66  A    between atoms: _150  and  _152
REMARK   67  A    between atoms: _152  and  _153
REMARK   68  A    between atoms: _155  and  _157
REMARK   69  A    between atoms: _157  and  _158
REMARK   70  A    between atoms: _160  and  _162
REMARK   71  A    between atoms: _162  and  _163
REMARK   72  A    between atoms: _162  and  _165
REMARK   73  A    between atoms: _165  and  _166
REMARK   74  A    between atoms: _169  and  _171
REMARK   75  A    between atoms: _171  and  _172
REMARK   76  A    between atoms: _171  and  _174
REMARK   77  A    between atoms: _177  and  _179
REMARK   78  A    between atoms: _179  and  _180
REMARK   79  A    between atoms: _179  and  _182
REMARK   80  A    between atoms: _182  and  _183
REMARK   81  A    between atoms: _186  and  _188
REMARK   82  A    between atoms: _188  and  _189
REMARK   83  A    between atoms: _188  and  _191
REMARK   84  A    between atoms: _191  and  _192
REMARK   85  A    between atoms: _196  and  _197
REMARK   86  A    between atoms: _202  and  _204
REMARK   87  A    between atoms: _204  and  _205
REMARK   88  A    between atoms: _204  and  _207
REMARK   89  A    between atoms: _210  and  _212
REMARK   90  A    between atoms: _212  and  _213
REMARK   91  A    between atoms: _212  and  _215
REMARK   92  A    between atoms: _215  and  _216
REMARK   93  A    between atoms: _221  and  _223
REMARK   94  A    between atoms: _223  and  _224
REMARK   95  A    between atoms: _223  and  _226
REMARK   96  A    between atoms: _226  and  _227
REMARK   97  A    between atoms: _230  and  _232
REMARK   98  A    between atoms: _232  and  _233
REMARK   99  A    between atoms: _232  and  _235
REMARK  100  A    between atoms: _235  and  _236
REMARK  101  A    between atoms: _239  and  _241
REMARK  102  A    between atoms: _241  and  _242
REMARK  103  A    between atoms: _244  and  _246
REMARK  104  A    between atoms: _246  and  _247
REMARK  105  A    between atoms: _246  and  _249
REMARK  106  A    between atoms: _249  and  _250
REMARK  107  A    between atoms: _250  and  _251
REMARK  108  A    between atoms: _251  and  _252
REMARK  109  A    between atoms: _261  and  _263
REMARK  110  A    between atoms: _263  and  _264
REMARK  111  A    between atoms: _263  and  _266
REMARK  112  A    between atoms: _266  and  _267
REMARK  113  A    between atoms: _272  and  _274
REMARK  114  A    between atoms: _274  and  _275
REMARK  115  A    between atoms: _274  and  _277
REMARK  116  A    between atoms: _277  and  _278
REMARK  117  A    between atoms: _278  and  _279
REMARK  118  A    between atoms: _279  and  _280
REMARK  119  A    between atoms: _289  and  _291
REMARK  120  A    between atoms: _291  and  _292
REMARK  121  A    between atoms: _291  and  _294
REMARK  122  A    between atoms: _294  and  _295
REMARK  123  A    between atoms: _298  and  _300
REMARK  124  A    between atoms: _300  and  _301
REMARK  125  A    between atoms: _300  and  _303
REMARK  126  A    between atoms: _303  and  _304
REMARK  127  A    between atoms: _307  and  _309
REMARK  128  A    between atoms: _309  and  _310
REMARK  129  A    between atoms: _309  and  _312
REMARK  130  A    between atoms: _312  and  _313
REMARK  131  A    between atoms: _316  and  _318
REMARK  132  A    between atoms: _318  and  _319
REMARK  133  A    between atoms: _318  and  _321
REMARK  134  A    between atoms: _321  and  _322
REMARK  135  A    between atoms: _325  and  _327
REMARK  136  A    between atoms: _327  and  _328
REMARK  137  A    between atoms: _330  and  _332
REMARK  138  A    between atoms: _332  and  _333
REMARK  139  A    between atoms: _336  and  _338
REMARK  140  A    between atoms: _338  and  _339
REMARK  141  A    between atoms: _338  and  _341
REMARK  142  A    between atoms: _341  and  _342
REMARK  143  A    between atoms: _345  and  _347
REMARK  144  A    between atoms: _347  and  _348
REMARK  145  A    between atoms: _347  and  _350
REMARK  146  A    between atoms: _350  and  _351
REMARK  147  A    between atoms: _354  and  _356
REMARK  148  A    between atoms: _356  and  _357
REMARK  149  A    between atoms: _356  and  _359
REMARK  150  A    between atoms: _359  and  _360
REMARK  151  A    between atoms: _363  and  _365
REMARK  152  A    between atoms: _365  and  _366
REMARK  153  A    between atoms: _365  and  _368
REMARK  154  A    between atoms: _371  and  _373
REMARK  155  A    between atoms: _373  and  _374
REMARK  156  A    between atoms: _373  and  _376
REMARK  157  A    between atoms: _376  and  _377
REMARK  158  A    between atoms: _377  and  _378
REMARK  159  A    between atoms: _378  and  _379
REMARK  160  A    between atoms: _379  and  _380
REMARK  161  A    between atoms: _384  and  _386
REMARK  162  A    between atoms: _386  and  _387
REMARK  163  A    between atoms: _386  and  _389
REMARK  164  A    between atoms: _389  and  _390
REMARK  165  A    between atoms: _390  and  _391
REMARK  166  A    between atoms: _393  and  _395
REMARK  167  A    between atoms: _395  and  _396
REMARK  168  A    between atoms: _395  and  _398
REMARK  169  A    between atoms: _398  and  _399
REMARK  170  A    between atoms: _402  and  _404
REMARK  171  A    between atoms: _404  and  _405
REMARK  172  A    between atoms: _407  and  _409
REMARK  173  A    between atoms: _409  and  _410
REMARK  174  A    between atoms: _412  and  _414
REMARK  175  A    between atoms: _414  and  _415
REMARK  176  A    between atoms: _414  and  _417
REMARK  177  A    between atoms: _417  and  _418
REMARK  178  A    between atoms: _421  and  _423
REMARK  179  A    between atoms: _423  and  _424
REMARK  180  A    between atoms: _426  and  _428
REMARK  181  A    between atoms: _428  and  _429
REMARK  182  A    between atoms: _431  and  _433
REMARK  183  A    between atoms: _433  and  _434
REMARK  184  A    between atoms: _433  and  _436
REMARK  185  A    between atoms: _436  and  _437
REMARK  186  A    between atoms: _443  and  _445
REMARK  187  A    between atoms: _445  and  _446
REMARK  188  A    between atoms: _445  and  _448
REMARK  189  A    between atoms: _448  and  _449
REMARK  190  A    between atoms: _452  and  _454
REMARK  191  A    between atoms: _454  and  _455
REMARK  192  A    between atoms: _454  and  _457
REMARK  193  A    between atoms: _457  and  _458
REMARK  194  A    between atoms: _461  and  _463
REMARK  195  A    between atoms: _463  and  _464
REMARK  196  A    between atoms: _463  and  _466
REMARK  197  A    between atoms: _466  and  _467
REMARK  198  A    between atoms: _471  and  _472
REMARK  199  A    between atoms: _477  and  _479
REMARK  200  A    between atoms: _479  and  _480
REMARK  201  A    between atoms: _479  and  _482
REMARK  202  A    between atoms: _485  and  _487
REMARK  203  A    between atoms: _487  and  _488
REMARK  204  A    between atoms: _487  and  _490
REMARK  205  A    between atoms: _490  and  _491
REMARK  206  A    between atoms: _496  and  _498
REMARK  207  A    between atoms: _498  and  _499
REMARK  208  A    between atoms: _498  and  _501
REMARK  209  A    between atoms: _501  and  _502
REMARK  210  A    between atoms: _505  and  _507
REMARK  211  A    between atoms: _507  and  _508
REMARK  212  A    between atoms: _507  and  _510
REMARK  213  A    between atoms: _510  and  _511
REMARK  214  A    between atoms: _514  and  _516
REMARK  215  A    between atoms: _516  and  _517
REMARK  216  A    between atoms: _519  and  _521
REMARK  217  A    between atoms: _521  and  _522
REMARK  218  A    between atoms: _521  and  _524
REMARK  219  A    between atoms: _524  and  _525
REMARK  220  A    between atoms: _525  and  _526
REMARK  221  A    between atoms: _526  and  _527
REMARK  222  A    between atoms: _536  and  _538
REMARK  223  A    between atoms: _538  and  _539
REMARK  224  A    between atoms: _538  and  _541
REMARK  225  A    between atoms: _541  and  _542
REMARK                            x       y       z     vdW  Elec       q    Type
REMARK                         _______ _______ _______ _____ _____    ______ ____
ROOT
ATOM      1  O   HOH     1      23.960  33.062  20.868  0.00  0.00    +0.000 OA
ENDROOT
TORSDOF 0
REMARK  Name = ../refined-set-2016/2i4u/2i4u_pocket.pdb
REMARK  225 active torsions:
REMARK  status: ('A' for Active; 'I' for Inactive)
REMARK    1  A    between atoms: _1  and  _3
REMARK    2  A    between atoms: _3  and  _4
REMARK    3  A    between atoms: _3  and  _6
REMARK    4  A    between atoms: _6  and  _7
REMARK    5  A    between atoms: _7  and  _8
REMARK    6  A    between atoms: _8  and  _9
REMARK    7  A    between atoms: _18  and  _20
REMARK    8  A    between atoms: _20  and  _21
REMARK    9  A    between atoms: _20  and  _23
REMARK   10  A    between atoms: _23  and  _24
REMARK   11  A    between atoms: _27  and  _29
REMARK   12  A    between atoms: _29  and  _30
REMARK   13  A    between atoms: _29  and  _32
REMARK   14  A    between atoms: _32  and  _33
REMARK   15  A    between atoms: _36  and  _38
REMARK   16  A    between atoms: _38  and  _39
REMARK   17  A    between atoms: _38  and  _41
REMARK   18  A    between atoms: _41  and  _42
REMARK   19  A    between atoms: _45  and  _47
REMARK   20  A    between atoms: _47  and  _48
REMARK   21  A    between atoms: _47  and  _50
REMARK   22  A    between atoms: _50  and  _51
REMARK   23  A    between atoms: _54  and  _56
REMARK   24  A    between atoms: _56  and  _57
REMARK   25  A    between atoms: _59  and  _61
REMARK   26  A    between atoms: _61  and  _62
REMARK   27  A    between atoms: _65  and  _67
REMARK   28  A    between atoms: _67  and  _68
REMARK   29  A    between atoms: _67  and  _70
REMARK   30  A    between atoms: _70  and  _71
REMARK   31  A    between atoms: _74  and  _76
REMARK   32  A    between atoms: _76  and  _77
REMARK   33  A    between atoms: _76  and  _79
REMARK   34  A    between atoms: _79  and  _80
REMARK   35  A    between atoms: _83  and  _85
REMARK   36  A    between atoms: _85  and  _86
REMARK   37  A    between atoms: _85  and  _88
REMARK   38  A    between atoms: _88  and  _89
REMARK   39  A    between atoms: _92  and  _94
REMARK   40  A    between atoms: _94  and  _95
REMARK   41  A    between atoms: _94  and  _97
REMARK   42  A    between atoms: _100  and  _102
REMARK   43  A    between atoms: _102  and  _103
REMARK   44  A    between atoms: _102  and  _105
REMARK   45  A    between atoms: _105  and  _106
REMARK   46  A    between atoms: _106  and  _107
REMARK   47  A    between atoms: _107  and  _108
REMARK   48  A    between atoms: _108  and  _109
REMARK   49  A    between atoms: _113  and  _115
REMARK   50  A    between atoms: _115  and  _116
REMARK   51  A    between atoms: _115  and  _118
REMARK   52  A    between atoms: _118  and  _119
REMARK   53  A    between atoms: _119  and  _120
REMARK   54  A    between atoms: _122  and  _124
REMARK   55  A    between atoms: _124  and  _125
REMARK   56  A    between atoms: _124  and  _127
REMARK   57  A    between atoms: _127  and  _128
REMARK   58  A    between atoms: _131  and  _133
REMARK   59  A    between atoms: _133  and  _134
REMARK   60  A    between atoms: _136  and  _138
REMARK   61  A    between atoms: _138  and  _139
REMARK   62  A    between atoms: _141  and  _143
REMARK   63  A    between atoms: _143  and  _144
REMARK   64  A    between atoms: _143  and  _146
REMARK   65  A    between atoms: _146  and  _147
REMARK   66  A    between atoms: _150  and  _152
REMARK   67  A    between atoms: _152  and  _153
REMARK   68  A    between atoms: _155  and  _157
REMARK   69  A    between atoms: _157  and  _158
REMARK   70  A    between atoms: _160  and  _162
REMARK   71  A    between atoms: _162  and  _163
REMARK   72  A    between atoms: _162  and  _165
REMARK   73  A    between atoms: _165  and  _166
REMARK   74  A    between atoms: _169  and  _171
REMARK   75  A    between atoms: _171  and  _172
REMARK   76  A    between atoms: _171  and  _174
REMARK   77  A    between atoms: _177  and  _179
REMARK   78  A    between atoms: _179  and  _180
REMARK   79  A    between atoms: _179  and  _182
REMARK   80  A    between atoms: _182  and  _183
REMARK   81  A    between atoms: _186  and  _188
REMARK   82  A    between atoms: _188  and  _189
REMARK   83  A    between atoms: _188  and  _191
REMARK   84  A    between atoms: _191  and  _192
REMARK   85  A    between atoms: _196  and  _197
REMARK   86  A    between atoms: _202  and  _204
REMARK   87  A    between atoms: _204  and  _205
REMARK   88  A    between atoms: _204  and  _207
REMARK   89  A    between atoms: _210  and  _212
REMARK   90  A    between atoms: _212  and  _213
REMARK   91  A    between atoms: _212  and  _215
REMARK   92  A    between atoms: _215  and  _216
REMARK   93  A    between atoms: _221  and  _223
REMARK   94  A    between atoms: _223  and  _224
REMARK   95  A    between atoms: _223  and  _226
REMARK   96  A    between atoms: _226  and  _227
REMARK   97  A    between atoms: _230  and  _232
REMARK   98  A    between atoms: _232  and  _233
REMARK   99  A    between atoms: _232  and  _235
REMARK  100  A    between atoms: _235  and  _236
REMARK  101  A    between atoms: _239  and  _241
REMARK  102  A    between atoms: _241  and  _242
REMARK  103  A    between atoms: _244  and  _246
REMARK  104  A    between atoms: _246  and  _247
REMARK  105  A    between atoms: _246  and  _249
REMARK  106  A    between atoms: _249  and  _250
REMARK  107  A    between atoms: _250  and  _251
REMARK  108  A    between atoms: _251  and  _252
REMARK  109  A    between atoms: _261  and  _263
REMARK  110  A    between atoms: _263  and  _264
REMARK  111  A    between atoms: _263  and  _266
REMARK  112  A    between atoms: _266  and  _267
REMARK  113  A    between atoms: _272  and  _274
REMARK  114  A    between atoms: _274  and  _275
REMARK  115  A    between atoms: _274  and  _277
REMARK  116  A    between atoms: _277  and  _278
REMARK  117  A    between atoms: _278  and  _279
REMARK  118  A    between atoms: _279  and  _280
REMARK  119  A    between atoms: _289  and  _291
REMARK  120  A    between atoms: _291  and  _292
REMARK  121  A    between atoms: _291  and  _294
REMARK  122  A    between atoms: _294  and  _295
REMARK  123  A    between atoms: _298  and  _300
REMARK  124  A    between atoms: _300  and  _301
REMARK  125  A    between atoms: _300  and  _303
REMARK  126  A    between atoms: _303  and  _304
REMARK  127  A    between atoms: _307  and  _309
REMARK  128  A    between atoms: _309  and  _310
REMARK  129  A    between atoms: _309  and  _312
REMARK  130  A    between atoms: _312  and  _313
REMARK  131  A    between atoms: _316  and  _318
REMARK  132  A    between atoms: _318  and  _319
REMARK  133  A    between atoms: _318  and  _321
REMARK  134  A    between atoms: _321  and  _322
REMARK  135  A    between atoms: _325  and  _327
REMARK  136  A    between atoms: _327  and  _328
REMARK  137  A    between atoms: _330  and  _332
REMARK  138  A    between atoms: _332  and  _333
REMARK  139  A    between atoms: _336  and  _338
REMARK  140  A    between atoms: _338  and  _339
REMARK  141  A    between atoms: _338  and  _341
REMARK  142  A    between atoms: _341  and  _342
REMARK  143  A    between atoms: _345  and  _347
REMARK  144  A    between atoms: _347  and  _348
REMARK  145  A    between atoms: _347  and  _350
REMARK  146  A    between atoms: _350  and  _351
REMARK  147  A    between atoms: _354  and  _356
REMARK  148  A    between atoms: _356  and  _357
REMARK  149  A    between atoms: _356  and  _359
REMARK  150  A    between atoms: _359  and  _360
REMARK  151  A    between atoms: _363  and  _365
REMARK  152  A    between atoms: _365  and  _366
REMARK  153  A    between atoms: _365  and  _368
REMARK  154  A    between atoms: _371  and  _373
REMARK  155  A    between atoms: _373  and  _374
REMARK  156  A    between atoms: _373  and  _376
REMARK  157  A    between atoms: _376  and  _377
REMARK  158  A    between atoms: _377  and  _378
REMARK  159  A    between atoms: _378  and  _379
REMARK  160  A    between atoms: _379  and  _380
REMARK  161  A    between atoms: _384  and  _386
REMARK  162  A    between atoms: _386  and  _387
REMARK  163  A    between atoms: _386  and  _389
REMARK  164  A    between atoms: _389  and  _390
REMARK  165  A    between atoms: _390  and  _391
REMARK  166  A    between atoms: _393  and  _395
REMARK  167  A    between atoms: _395  and  _396
REMARK  168  A    between atoms: _395  and  _398
REMARK  169  A    between atoms: _398  and  _399
REMARK  170  A    between atoms: _402  and  _404
REMARK  171  A    between atoms: _404  and  _405
REMARK  172  A    between atoms: _407  and  _409
REMARK  173  A    between atoms: _409  and  _410
REMARK  174  A    between atoms: _412  and  _414
REMARK  175  A    between atoms: _414  and  _415
REMARK  176  A    between atoms: _414  and  _417
REMARK  177  A    between atoms: _417  and  _418
REMARK  178  A    between atoms: _421  and  _423
REMARK  179  A    between atoms: _423  and  _424
REMARK  180  A    between atoms: _426  and  _428
REMARK  181  A    between atoms: _428  and  _429
REMARK  182  A    between atoms: _431  and  _433
REMARK  183  A    between atoms: _433  and  _434
REMARK  184  A    between atoms: _433  and  _436
REMARK  185  A    between atoms: _436  and  _437
REMARK  186  A    between atoms: _443  and  _445
REMARK  187  A    between atoms: _445  and  _446
REMARK  188  A    between atoms: _445  and  _448
REMARK  189  A    between atoms: _448  and  _449
REMARK  190  A    between atoms: _452  and  _454
REMARK  191  A    between atoms: _454  and  _455
REMARK  192  A    between atoms: _454  and  _457
REMARK  193  A    between atoms: _457  and  _458
REMARK  194  A    between atoms: _461  and  _463
REMARK  195  A    between atoms: _463  and  _464
REMARK  196  A    between atoms: _463  and  _466
REMARK  197  A    between atoms: _466  and  _467
REMARK  198  A    between atoms: _471  and  _472
REMARK  199  A    between atoms: _477  and  _479
REMARK  200  A    between atoms: _479  and  _480
REMARK  201  A    between atoms: _479  and  _482
REMARK  202  A    between atoms: _485  and  _487
REMARK  203  A    between atoms: _487  and  _488
REMARK  204  A    between atoms: _487  and  _490
REMARK  205  A    between atoms: _490  and  _491
REMARK  206  A    between atoms: _496  and  _498
REMARK  207  A    between atoms: _498  and  _499
REMARK  208  A    between atoms: _498  and  _501
REMARK  209  A    between atoms: _501  and  _502
REMARK  210  A    between atoms: _505  and  _507
REMARK  211  A    between atoms: _507  and  _508
REMARK  212  A    between atoms: _507  and  _510
REMARK  213  A    between atoms: _510  and  _511
REMARK  214  A    between atoms: _514  and  _516
REMARK  215  A    between atoms: _516  and  _517
REMARK  216  A    between atoms: _519  and  _521
REMARK  217  A    between atoms: _521  and  _522
REMARK  218  A    between atoms: _521  and  _524
REMARK  219  A    between atoms: _524  and  _525
REMARK  220  A    between atoms: _525  and  _526
REMARK  221  A    between atoms: _526  and  _527
REMARK  222  A    between atoms: _536  and  _538
REMARK  223  A    between atoms: _538  and  _539
REMARK  224  A    between atoms: _538  and  _541
REMARK  225  A    between atoms: _541  and  _542
REMARK                            x       y       z     vdW  Elec       q    Type
REMARK                         _______ _______ _______ _____ _____    ______ ____
ROOT
ATOM      1  O   HOH     1       6.427  15.887  25.681  0.00  0.00    +0.000 OA
ENDROOT
TORSDOF 0
REMARK  Name = ../refined-set-2016/2i4u/2i4u_pocket.pdb
REMARK  225 active torsions:
REMARK  status: ('A' for Active; 'I' for Inactive)
REMARK    1  A    between atoms: _1  and  _3
REMARK    2  A    between atoms: _3  and  _4
REMARK    3  A    between atoms: _3  and  _6
REMARK    4  A    between atoms: _6  and  _7
REMARK    5  A    between atoms: _7  and  _8
REMARK    6  A    between atoms: _8  and  _9
REMARK    7  A    between atoms: _18  and  _20
REMARK    8  A    between atoms: _20  and  _21
REMARK    9  A    between atoms: _20  and  _23
REMARK   10  A    between atoms: _23  and  _24
REMARK   11  A    between atoms: _27  and  _29
REMARK   12  A    between atoms: _29  and  _30
REMARK   13  A    between atoms: _29  and  _32
REMARK   14  A    between atoms: _32  and  _33
REMARK   15  A    between atoms: _36  and  _38
REMARK   16  A    between atoms: _38  and  _39
REMARK   17  A    between atoms: _38  and  _41
REMARK   18  A    between atoms: _41  and  _42
REMARK   19  A    between atoms: _45  and  _47
REMARK   20  A    between atoms: _47  and  _48
REMARK   21  A    between atoms: _47  and  _50
REMARK   22  A    between atoms: _50  and  _51
REMARK   23  A    between atoms: _54  and  _56
REMARK   24  A    between atoms: _56  and  _57
REMARK   25  A    between atoms: _59  and  _61
REMARK   26  A    between atoms: _61  and  _62
REMARK   27  A    between atoms: _65  and  _67
REMARK   28  A    between atoms: _67  and  _68
REMARK   29  A    between atoms: _67  and  _70
REMARK   30  A    between atoms: _70  and  _71
REMARK   31  A    between atoms: _74  and  _76
REMARK   32  A    between atoms: _76  and  _77
REMARK   33  A    between atoms: _76  and  _79
REMARK   34  A    between atoms: _79  and  _80
REMARK   35  A    between atoms: _83  and  _85
REMARK   36  A    between atoms: _85  and  _86
REMARK   37  A    between atoms: _85  and  _88
REMARK   38  A    between atoms: _88  and  _89
REMARK   39  A    between atoms: _92  and  _94
REMARK   40  A    between atoms: _94  and  _95
REMARK   41  A    between atoms: _94  and  _97
REMARK   42  A    between atoms: _100  and  _102
REMARK   43  A    between atoms: _102  and  _103
REMARK   44  A    between atoms: _102  and  _105
REMARK   45  A    between atoms: _105  and  _106
REMARK   46  A    between atoms: _106  and  _107
REMARK   47  A    between atoms: _107  and  _108
REMARK   48  A    between atoms: _108  and  _109
REMARK   49  A    between atoms: _113  and  _115
REMARK   50  A    between atoms: _115  and  _116
REMARK   51  A    between atoms: _115  and  _118
REMARK   52  A    between atoms: _118  and  _119
REMARK   53  A    between atoms: _119  and  _120
REMARK   54  A    between atoms: _122  and  _124
REMARK   55  A    between atoms: _124  and  _125
REMARK   56  A    between atoms: _124  and  _127
REMARK   57  A    between atoms: _127  and  _128
REMARK   58  A    between atoms: _131  and  _133
REMARK   59  A    between atoms: _133  and  _134
REMARK   60  A    between atoms: _136  and  _138
REMARK   61  A    between atoms: _138  and  _139
REMARK   62  A    between atoms: _141  and  _143
REMARK   63  A    between atoms: _143  and  _144
REMARK   64  A    between atoms: _143  and  _146
REMARK   65  A    between atoms: _146  and  _147
REMARK   66  A    between atoms: _150  and  _152
REMARK   67  A    between atoms: _152  and  _153
REMARK   68  A    between atoms: _155  and  _157
REMARK   69  A    between atoms: _157  and  _158
REMARK   70  A    between atoms: _160  and  _162
REMARK   71  A    between atoms: _162  and  _163
REMARK   72  A    between atoms: _162  and  _165
REMARK   73  A    between atoms: _165  and  _166
REMARK   74  A    between atoms: _169  and  _171
REMARK   75  A    between atoms: _171  and  _172
REMARK   76  A    between atoms: _171  and  _174
REMARK   77  A    between atoms: _177  and  _179
REMARK   78  A    between atoms: _179  and  _180
REMARK   79  A    between atoms: _179  and  _182
REMARK   80  A    between atoms: _182  and  _183
REMARK   81  A    between atoms: _186  and  _188
REMARK   82  A    between atoms: _188  and  _189
REMARK   83  A    between atoms: _188  and  _191
REMARK   84  A    between atoms: _191  and  _192
REMARK   85  A    between atoms: _196  and  _197
REMARK   86  A    between atoms: _202  and  _204
REMARK   87  A    between atoms: _204  and  _205
REMARK   88  A    between atoms: _204  and  _207
REMARK   89  A    between atoms: _210  and  _212
REMARK   90  A    between atoms: _212  and  _213
REMARK   91  A    between atoms: _212  and  _215
REMARK   92  A    between atoms: _215  and  _216
REMARK   93  A    between atoms: _221  and  _223
REMARK   94  A    between atoms: _223  and  _224
REMARK   95  A    between atoms: _223  and  _226
REMARK   96  A    between atoms: _226  and  _227
REMARK   97  A    between atoms: _230  and  _232
REMARK   98  A    between atoms: _232  and  _233
REMARK   99  A    between atoms: _232  and  _235
REMARK  100  A    between atoms: _235  and  _236
REMARK  101  A    between atoms: _239  and  _241
REMARK  102  A    between atoms: _241  and  _242
REMARK  103  A    between atoms: _244  and  _246
REMARK  104  A    between atoms: _246  and  _247
REMARK  105  A    between atoms: _246  and  _249
REMARK  106  A    between atoms: _249  and  _250
REMARK  107  A    between atoms: _250  and  _251
REMARK  108  A    between atoms: _251  and  _252
REMARK  109  A    between atoms: _261  and  _263
REMARK  110  A    between atoms: _263  and  _264
REMARK  111  A    between atoms: _263  and  _266
REMARK  112  A    between atoms: _266  and  _267
REMARK  113  A    between atoms: _272  and  _274
REMARK  114  A    between atoms: _274  and  _275
REMARK  115  A    between atoms: _274  and  _277
REMARK  116  A    between atoms: _277  and  _278
REMARK  117  A    between atoms: _278  and  _279
REMARK  118  A    between atoms: _279  and  _280
REMARK  119  A    between atoms: _289  and  _291
REMARK  120  A    between atoms: _291  and  _292
REMARK  121  A    between atoms: _291  and  _294
REMARK  122  A    between atoms: _294  and  _295
REMARK  123  A    between atoms: _298  and  _300
REMARK  124  A    between atoms: _300  and  _301
REMARK  125  A    between atoms: _300  and  _303
REMARK  126  A    between atoms: _303  and  _304
REMARK  127  A    between atoms: _307  and  _309
REMARK  128  A    between atoms: _309  and  _310
REMARK  129  A    between atoms: _309  and  _312
REMARK  130  A    between atoms: _312  and  _313
REMARK  131  A    between atoms: _316  and  _318
REMARK  132  A    between atoms: _318  and  _319
REMARK  133  A    between atoms: _318  and  _321
REMARK  134  A    between atoms: _321  and  _322
REMARK  135  A    between atoms: _325  and  _327
REMARK  136  A    between atoms: _327  and  _328
REMARK  137  A    between atoms: _330  and  _332
REMARK  138  A    between atoms: _332  and  _333
REMARK  139  A    between atoms: _336  and  _338
REMARK  140  A    between atoms: _338  and  _339
REMARK  141  A    between atoms: _338  and  _341
REMARK  142  A    between atoms: _341  and  _342
REMARK  143  A    between atoms: _345  and  _347
REMARK  144  A    between atoms: _347  and  _348
REMARK  145  A    between atoms: _347  and  _350
REMARK  146  A    between atoms: _350  and  _351
REMARK  147  A    between atoms: _354  and  _356
REMARK  148  A    between atoms: _356  and  _357
REMARK  149  A    between atoms: _356  and  _359
REMARK  150  A    between atoms: _359  and  _360
REMARK  151  A    between atoms: _363  and  _365
REMARK  152  A    between atoms: _365  and  _366
REMARK  153  A    between atoms: _365  and  _368
REMARK  154  A    between atoms: _371  and  _373
REMARK  155  A    between atoms: _373  and  _374
REMARK  156  A    between atoms: _373  and  _376
REMARK  157  A    between atoms: _376  and  _377
REMARK  158  A    between atoms: _377  and  _378
REMARK  159  A    between atoms: _378  and  _379
REMARK  160  A    between atoms: _379  and  _380
REMARK  161  A    between atoms: _384  and  _386
REMARK  162  A    between atoms: _386  and  _387
REMARK  163  A    between atoms: _386  and  _389
REMARK  164  A    between atoms: _389  and  _390
REMARK  165  A    between atoms: _390  and  _391
REMARK  166  A    between atoms: _393  and  _395
REMARK  167  A    between atoms: _395  and  _396
REMARK  168  A    between atoms: _395  and  _398
REMARK  169  A    between atoms: _398  and  _399
REMARK  170  A    between atoms: _402  and  _404
REMARK  171  A    between atoms: _404  and  _405
REMARK  172  A    between atoms: _407  and  _409
REMARK  173  A    between atoms: _409  and  _410
REMARK  174  A    between atoms: _412  and  _414
REMARK  175  A    between atoms: _414  and  _415
REMARK  176  A    between atoms: _414  and  _417
REMARK  177  A    between atoms: _417  and  _418
REMARK  178  A    between atoms: _421  and  _423
REMARK  179  A    between atoms: _423  and  _424
REMARK  180  A    between atoms: _426  and  _428
REMARK  181  A    between atoms: _428  and  _429
REMARK  182  A    between atoms: _431  and  _433
REMARK  183  A    between atoms: _433  and  _434
REMARK  184  A    between atoms: _433  and  _436
REMARK  185  A    between atoms: _436  and  _437
REMARK  186  A    between atoms: _443  and  _445
REMARK  187  A    between atoms: _445  and  _446
REMARK  188  A    between atoms: _445  and  _448
REMARK  189  A    between atoms: _448  and  _449
REMARK  190  A    between atoms: _452  and  _454
REMARK  191  A    between atoms: _454  and  _455
REMARK  192  A    between atoms: _454  and  _457
REMARK  193  A    between atoms: _457  and  _458
REMARK  194  A    between atoms: _461  and  _463
REMARK  195  A    between atoms: _463  and  _464
REMARK  196  A    between atoms: _463  and  _466
REMARK  197  A    between atoms: _466  and  _467
REMARK  198  A    between atoms: _471  and  _472
REMARK  199  A    between atoms: _477  and  _479
REMARK  200  A    between atoms: _479  and  _480
REMARK  201  A    between atoms: _479  and  _482
REMARK  202  A    between atoms: _485  and  _487
REMARK  203  A    between atoms: _487  and  _488
REMARK  204  A    between atoms: _487  and  _490
REMARK  205  A    between atoms: _490  and  _491
REMARK  206  A    between atoms: _496  and  _498
REMARK  207  A    between atoms: _498  and  _499
REMARK  208  A    between atoms: _498  and  _501
REMARK  209  A    between atoms: _501  and  _502
REMARK  210  A    between atoms: _505  and  _507
REMARK  211  A    between atoms: _507  and  _508
REMARK  212  A    between atoms: _507  and  _510
REMARK  213  A    between atoms: _510  and  _511
REMARK  214  A    between atoms: _514  and  _516
REMARK  215  A    between atoms: _516  and  _517
REMARK  216  A    between atoms: _519  and  _521
REMARK  217  A    between atoms: _521  and  _522
REMARK  218  A    between atoms: _521  and  _524
REMARK  219  A    between atoms: _524  and  _525
REMARK  220  A    between atoms: _525  and  _526
REMARK  221  A    between atoms: _526  and  _527
REMARK  222  A    between atoms: _536  and  _538
REMARK  223  A    between atoms: _538  and  _539
REMARK  224  A    between atoms: _538  and  _541
REMARK  225  A    between atoms: _541  and  _542
REMARK                            x       y       z     vdW  Elec       q    Type
REMARK                         _______ _______ _______ _____ _____    ______ ____
ROOT
ATOM      1  O   HOH     1      16.800  14.825   9.437  0.00  0.00    +0.000 OA
ENDROOT
TORSDOF 0
REMARK  Name = ../refined-set-2016/2i4u/2i4u_pocket.pdb
REMARK  225 active torsions:
REMARK  status: ('A' for Active; 'I' for Inactive)
REMARK    1  A    between atoms: _1  and  _3
REMARK    2  A    between atoms: _3  and  _4
REMARK    3  A    between atoms: _3  and  _6
REMARK    4  A    between atoms: _6  and  _7
REMARK    5  A    between atoms: _7  and  _8
REMARK    6  A    between atoms: _8  and  _9
REMARK    7  A    between atoms: _18  and  _20
REMARK    8  A    between atoms: _20  and  _21
REMARK    9  A    between atoms: _20  and  _23
REMARK   10  A    between atoms: _23  and  _24
REMARK   11  A    between atoms: _27  and  _29
REMARK   12  A    between atoms: _29  and  _30
REMARK   13  A    between atoms: _29  and  _32
REMARK   14  A    between atoms: _32  and  _33
REMARK   15  A    between atoms: _36  and  _38
REMARK   16  A    between atoms: _38  and  _39
REMARK   17  A    between atoms: _38  and  _41
REMARK   18  A    between atoms: _41  and  _42
REMARK   19  A    between atoms: _45  and  _47
REMARK   20  A    between atoms: _47  and  _48
REMARK   21  A    between atoms: _47  and  _50
REMARK   22  A    between atoms: _50  and  _51
REMARK   23  A    between atoms: _54  and  _56
REMARK   24  A    between atoms: _56  and  _57
REMARK   25  A    between atoms: _59  and  _61
REMARK   26  A    between atoms: _61  and  _62
REMARK   27  A    between atoms: _65  and  _67
REMARK   28  A    between atoms: _67  and  _68
REMARK   29  A    between atoms: _67  and  _70
REMARK   30  A    between atoms: _70  and  _71
REMARK   31  A    between atoms: _74  and  _76
REMARK   32  A    between atoms: _76  and  _77
REMARK   33  A    between atoms: _76  and  _79
REMARK   34  A    between atoms: _79  and  _80
REMARK   35  A    between atoms: _83  and  _85
REMARK   36  A    between atoms: _85  and  _86
REMARK   37  A    between atoms: _85  and  _88
REMARK   38  A    between atoms: _88  and  _89
REMARK   39  A    between atoms: _92  and  _94
REMARK   40  A    between atoms: _94  and  _95
REMARK   41  A    between atoms: _94  and  _97
REMARK   42  A    between atoms: _100  and  _102
REMARK   43  A    between atoms: _102  and  _103
REMARK   44  A    between atoms: _102  and  _105
REMARK   45  A    between atoms: _105  and  _106
REMARK   46  A    between atoms: _106  and  _107
REMARK   47  A    between atoms: _107  and  _108
REMARK   48  A    between atoms: _108  and  _109
REMARK   49  A    between atoms: _113  and  _115
REMARK   50  A    between atoms: _115  and  _116
REMARK   51  A    between atoms: _115  and  _118
REMARK   52  A    between atoms: _118  and  _119
REMARK   53  A    between atoms: _119  and  _120
REMARK   54  A    between atoms: _122  and  _124
REMARK   55  A    between atoms: _124  and  _125
REMARK   56  A    between atoms: _124  and  _127
REMARK   57  A    between atoms: _127  and  _128
REMARK   58  A    between atoms: _131  and  _133
REMARK   59  A    between atoms: _133  and  _134
REMARK   60  A    between atoms: _136  and  _138
REMARK   61  A    between atoms: _138  and  _139
REMARK   62  A    between atoms: _141  and  _143
REMARK   63  A    between atoms: _143  and  _144
REMARK   64  A    between atoms: _143  and  _146
REMARK   65  A    between atoms: _146  and  _147
REMARK   66  A    between atoms: _150  and  _152
REMARK   67  A    between atoms: _152  and  _153
REMARK   68  A    between atoms: _155  and  _157
REMARK   69  A    between atoms: _157  and  _158
REMARK   70  A    between atoms: _160  and  _162
REMARK   71  A    between atoms: _162  and  _163
REMARK   72  A    between atoms: _162  and  _165
REMARK   73  A    between atoms: _165  and  _166
REMARK   74  A    between atoms: _169  and  _171
REMARK   75  A    between atoms: _171  and  _172
REMARK   76  A    between atoms: _171  and  _174
REMARK   77  A    between atoms: _177  and  _179
REMARK   78  A    between atoms: _179  and  _180
REMARK   79  A    between atoms: _179  and  _182
REMARK   80  A    between atoms: _182  and  _183
REMARK   81  A    between atoms: _186  and  _188
REMARK   82  A    between atoms: _188  and  _189
REMARK   83  A    between atoms: _188  and  _191
REMARK   84  A    between atoms: _191  and  _192
REMARK   85  A    between atoms: _196  and  _197
REMARK   86  A    between atoms: _202  and  _204
REMARK   87  A    between atoms: _204  and  _205
REMARK   88  A    between atoms: _204  and  _207
REMARK   89  A    between atoms: _210  and  _212
REMARK   90  A    between atoms: _212  and  _213
REMARK   91  A    between atoms: _212  and  _215
REMARK   92  A    between atoms: _215  and  _216
REMARK   93  A    between atoms: _221  and  _223
REMARK   94  A    between atoms: _223  and  _224
REMARK   95  A    between atoms: _223  and  _226
REMARK   96  A    between atoms: _226  and  _227
REMARK   97  A    between atoms: _230  and  _232
REMARK   98  A    between atoms: _232  and  _233
REMARK   99  A    between atoms: _232  and  _235
REMARK  100  A    between atoms: _235  and  _236
REMARK  101  A    between atoms: _239  and  _241
REMARK  102  A    between atoms: _241  and  _242
REMARK  103  A    between atoms: _244  and  _246
REMARK  104  A    between atoms: _246  and  _247
REMARK  105  A    between atoms: _246  and  _249
REMARK  106  A    between atoms: _249  and  _250
REMARK  107  A    between atoms: _250  and  _251
REMARK  108  A    between atoms: _251  and  _252
REMARK  109  A    between atoms: _261  and  _263
REMARK  110  A    between atoms: _263  and  _264
REMARK  111  A    between atoms: _263  and  _266
REMARK  112  A    between atoms: _266  and  _267
REMARK  113  A    between atoms: _272  and  _274
REMARK  114  A    between atoms: _274  and  _275
REMARK  115  A    between atoms: _274  and  _277
REMARK  116  A    between atoms: _277  and  _278
REMARK  117  A    between atoms: _278  and  _279
REMARK  118  A    between atoms: _279  and  _280
REMARK  119  A    between atoms: _289  and  _291
REMARK  120  A    between atoms: _291  and  _292
REMARK  121  A    between atoms: _291  and  _294
REMARK  122  A    between atoms: _294  and  _295
REMARK  123  A    between atoms: _298  and  _300
REMARK  124  A    between atoms: _300  and  _301
REMARK  125  A    between atoms: _300  and  _303
REMARK  126  A    between atoms: _303  and  _304
REMARK  127  A    between atoms: _307  and  _309
REMARK  128  A    between atoms: _309  and  _310
REMARK  129  A    between atoms: _309  and  _312
REMARK  130  A    between atoms: _312  and  _313
REMARK  131  A    between atoms: _316  and  _318
REMARK  132  A    between atoms: _318  and  _319
REMARK  133  A    between atoms: _318  and  _321
REMARK  134  A    between atoms: _321  and  _322
REMARK  135  A    between atoms: _325  and  _327
REMARK  136  A    between atoms: _327  and  _328
REMARK  137  A    between atoms: _330  and  _332
REMARK  138  A    between atoms: _332  and  _333
REMARK  139  A    between atoms: _336  and  _338
REMARK  140  A    between atoms: _338  and  _339
REMARK  141  A    between atoms: _338  and  _341
REMARK  142  A    between atoms: _341  and  _342
REMARK  143  A    between atoms: _345  and  _347
REMARK  144  A    between atoms: _347  and  _348
REMARK  145  A    between atoms: _347  and  _350
REMARK  146  A    between atoms: _350  and  _351
REMARK  147  A    between atoms: _354  and  _356
REMARK  148  A    between atoms: _356  and  _357
REMARK  149  A    between atoms: _356  and  _359
REMARK  150  A    between atoms: _359  and  _360
REMARK  151  A    between atoms: _363  and  _365
REMARK  152  A    between atoms: _365  and  _366
REMARK  153  A    between atoms: _365  and  _368
REMARK  154  A    between atoms: _371  and  _373
REMARK  155  A    between atoms: _373  and  _374
REMARK  156  A    between atoms: _373  and  _376
REMARK  157  A    between atoms: _376  and  _377
REMARK  158  A    between atoms: _377  and  _378
REMARK  159  A    between atoms: _378  and  _379
REMARK  160  A    between atoms: _379  and  _380
REMARK  161  A    between atoms: _384  and  _386
REMARK  162  A    between atoms: _386  and  _387
REMARK  163  A    between atoms: _386  and  _389
REMARK  164  A    between atoms: _389  and  _390
REMARK  165  A    between atoms: _390  and  _391
REMARK  166  A    between atoms: _393  and  _395
REMARK  167  A    between atoms: _395  and  _396
REMARK  168  A    between atoms: _395  and  _398
REMARK  169  A    between atoms: _398  and  _399
REMARK  170  A    between atoms: _402  and  _404
REMARK  171  A    between atoms: _404  and  _405
REMARK  172  A    between atoms: _407  and  _409
REMARK  173  A    between atoms: _409  and  _410
REMARK  174  A    between atoms: _412  and  _414
REMARK  175  A    between atoms: _414  and  _415
REMARK  176  A    between atoms: _414  and  _417
REMARK  177  A    between atoms: _417  and  _418
REMARK  178  A    between atoms: _421  and  _423
REMARK  179  A    between atoms: _423  and  _424
REMARK  180  A    between atoms: _426  and  _428
REMARK  181  A    between atoms: _428  and  _429
REMARK  182  A    between atoms: _431  and  _433
REMARK  183  A    between atoms: _433  and  _434
REMARK  184  A    between atoms: _433  and  _436
REMARK  185  A    between atoms: _436  and  _437
REMARK  186  A    between atoms: _443  and  _445
REMARK  187  A    between atoms: _445  and  _446
REMARK  188  A    between atoms: _445  and  _448
REMARK  189  A    between atoms: _448  and  _449
REMARK  190  A    between atoms: _452  and  _454
REMARK  191  A    between atoms: _454  and  _455
REMARK  192  A    between atoms: _454  and  _457
REMARK  193  A    between atoms: _457  and  _458
REMARK  194  A    between atoms: _461  and  _463
REMARK  195  A    between atoms: _463  and  _464
REMARK  196  A    between atoms: _463  and  _466
REMARK  197  A    between atoms: _466  and  _467
REMARK  198  A    between atoms: _471  and  _472
REMARK  199  A    between atoms: _477  and  _479
REMARK  200  A    between atoms: _479  and  _480
REMARK  201  A    between atoms: _479  and  _482
REMARK  202  A    between atoms: _485  and  _487
REMARK  203  A    between atoms: _487  and  _488
REMARK  204  A    between atoms: _487  and  _490
REMARK  205  A    between atoms: _490  and  _491
REMARK  206  A    between atoms: _496  and  _498
REMARK  207  A    between atoms: _498  and  _499
REMARK  208  A    between atoms: _498  and  _501
REMARK  209  A    between atoms: _501  and  _502
REMARK  210  A    between atoms: _505  and  _507
REMARK  211  A    between atoms: _507  and  _508
REMARK  212  A    between atoms: _507  and  _510
REMARK  213  A    between atoms: _510  and  _511
REMARK  214  A    between atoms: _514  and  _516
REMARK  215  A    between atoms: _516  and  _517
REMARK  216  A    between atoms: _519  and  _521
REMARK  217  A    between atoms: _521  and  _522
REMARK  218  A    between atoms: _521  and  _524
REMARK  219  A    between atoms: _524  and  _525
REMARK  220  A    between atoms: _525  and  _526
REMARK  221  A    between atoms: _526  and  _527
REMARK  222  A    between atoms: _536  and  _538
REMARK  223  A    between atoms: _538  and  _539
REMARK  224  A    between atoms: _538  and  _541
REMARK  225  A    between atoms: _541  and  _542
REMARK                            x       y       z     vdW  Elec       q    Type
REMARK                         _______ _______ _______ _____ _____    ______ ____
ROOT
ATOM      1  O   HOH     1       4.719  16.163  21.085  0.00  0.00    +0.000 OA
ENDROOT
TORSDOF 0
REMARK  Name = ../refined-set-2016/2i4u/2i4u_pocket.pdb
REMARK  225 active torsions:
REMARK  status: ('A' for Active; 'I' for Inactive)
REMARK    1  A    between atoms: _1  and  _3
REMARK    2  A    between atoms: _3  and  _4
REMARK    3  A    between atoms: _3  and  _6
REMARK    4  A    between atoms: _6  and  _7
REMARK    5  A    between atoms: _7  and  _8
REMARK    6  A    between atoms: _8  and  _9
REMARK    7  A    between atoms: _18  and  _20
REMARK    8  A    between atoms: _20  and  _21
REMARK    9  A    between atoms: _20  and  _23
REMARK   10  A    between atoms: _23  and  _24
REMARK   11  A    between atoms: _27  and  _29
REMARK   12  A    between atoms: _29  and  _30
REMARK   13  A    between atoms: _29  and  _32
REMARK   14  A    between atoms: _32  and  _33
REMARK   15  A    between atoms: _36  and  _38
REMARK   16  A    between atoms: _38  and  _39
REMARK   17  A    between atoms: _38  and  _41
REMARK   18  A    between atoms: _41  and  _42
REMARK   19  A    between atoms: _45  and  _47
REMARK   20  A    between atoms: _47  and  _48
REMARK   21  A    between atoms: _47  and  _50
REMARK   22  A    between atoms: _50  and  _51
REMARK   23  A    between atoms: _54  and  _56
REMARK   24  A    between atoms: _56  and  _57
REMARK   25  A    between atoms: _59  and  _61
REMARK   26  A    between atoms: _61  and  _62
REMARK   27  A    between atoms: _65  and  _67
REMARK   28  A    between atoms: _67  and  _68
REMARK   29  A    between atoms: _67  and  _70
REMARK   30  A    between atoms: _70  and  _71
REMARK   31  A    between atoms: _74  and  _76
REMARK   32  A    between atoms: _76  and  _77
REMARK   33  A    between atoms: _76  and  _79
REMARK   34  A    between atoms: _79  and  _80
REMARK   35  A    between atoms: _83  and  _85
REMARK   36  A    between atoms: _85  and  _86
REMARK   37  A    between atoms: _85  and  _88
REMARK   38  A    between atoms: _88  and  _89
REMARK   39  A    between atoms: _92  and  _94
REMARK   40  A    between atoms: _94  and  _95
REMARK   41  A    between atoms: _94  and  _97
REMARK   42  A    between atoms: _100  and  _102
REMARK   43  A    between atoms: _102  and  _103
REMARK   44  A    between atoms: _102  and  _105
REMARK   45  A    between atoms: _105  and  _106
REMARK   46  A    between atoms: _106  and  _107
REMARK   47  A    between atoms: _107  and  _108
REMARK   48  A    between atoms: _108  and  _109
REMARK   49  A    between atoms: _113  and  _115
REMARK   50  A    between atoms: _115  and  _116
REMARK   51  A    between atoms: _115  and  _118
REMARK   52  A    between atoms: _118  and  _119
REMARK   53  A    between atoms: _119  and  _120
REMARK   54  A    between atoms: _122  and  _124
REMARK   55  A    between atoms: _124  and  _125
REMARK   56  A    between atoms: _124  and  _127
REMARK   57  A    between atoms: _127  and  _128
REMARK   58  A    between atoms: _131  and  _133
REMARK   59  A    between atoms: _133  and  _134
REMARK   60  A    between atoms: _136  and  _138
REMARK   61  A    between atoms: _138  and  _139
REMARK   62  A    between atoms: _141  and  _143
REMARK   63  A    between atoms: _143  and  _144
REMARK   64  A    between atoms: _143  and  _146
REMARK   65  A    between atoms: _146  and  _147
REMARK   66  A    between atoms: _150  and  _152
REMARK   67  A    between atoms: _152  and  _153
REMARK   68  A    between atoms: _155  and  _157
REMARK   69  A    between atoms: _157  and  _158
REMARK   70  A    between atoms: _160  and  _162
REMARK   71  A    between atoms: _162  and  _163
REMARK   72  A    between atoms: _162  and  _165
REMARK   73  A    between atoms: _165  and  _166
REMARK   74  A    between atoms: _169  and  _171
REMARK   75  A    between atoms: _171  and  _172
REMARK   76  A    between atoms: _171  and  _174
REMARK   77  A    between atoms: _177  and  _179
REMARK   78  A    between atoms: _179  and  _180
REMARK   79  A    between atoms: _179  and  _182
REMARK   80  A    between atoms: _182  and  _183
REMARK   81  A    between atoms: _186  and  _188
REMARK   82  A    between atoms: _188  and  _189
REMARK   83  A    between atoms: _188  and  _191
REMARK   84  A    between atoms: _191  and  _192
REMARK   85  A    between atoms: _196  and  _197
REMARK   86  A    between atoms: _202  and  _204
REMARK   87  A    between atoms: _204  and  _205
REMARK   88  A    between atoms: _204  and  _207
REMARK   89  A    between atoms: _210  and  _212
REMARK   90  A    between atoms: _212  and  _213
REMARK   91  A    between atoms: _212  and  _215
REMARK   92  A    between atoms: _215  and  _216
REMARK   93  A    between atoms: _221  and  _223
REMARK   94  A    between atoms: _223  and  _224
REMARK   95  A    between atoms: _223  and  _226
REMARK   96  A    between atoms: _226  and  _227
REMARK   97  A    between atoms: _230  and  _232
REMARK   98  A    between atoms: _232  and  _233
REMARK   99  A    between atoms: _232  and  _235
REMARK  100  A    between atoms: _235  and  _236
REMARK  101  A    between atoms: _239  and  _241
REMARK  102  A    between atoms: _241  and  _242
REMARK  103  A    between atoms: _244  and  _246
REMARK  104  A    between atoms: _246  and  _247
REMARK  105  A    between atoms: _246  and  _249
REMARK  106  A    between atoms: _249  and  _250
REMARK  107  A    between atoms: _250  and  _251
REMARK  108  A    between atoms: _251  and  _252
REMARK  109  A    between atoms: _261  and  _263
REMARK  110  A    between atoms: _263  and  _264
REMARK  111  A    between atoms: _263  and  _266
REMARK  112  A    between atoms: _266  and  _267
REMARK  113  A    between atoms: _272  and  _274
REMARK  114  A    between atoms: _274  and  _275
REMARK  115  A    between atoms: _274  and  _277
REMARK  116  A    between atoms: _277  and  _278
REMARK  117  A    between atoms: _278  and  _279
REMARK  118  A    between atoms: _279  and  _280
REMARK  119  A    between atoms: _289  and  _291
REMARK  120  A    between atoms: _291  and  _292
REMARK  121  A    between atoms: _291  and  _294
REMARK  122  A    between atoms: _294  and  _295
REMARK  123  A    between atoms: _298  and  _300
REMARK  124  A    between atoms: _300  and  _301
REMARK  125  A    between atoms: _300  and  _303
REMARK  126  A    between atoms: _303  and  _304
REMARK  127  A    between atoms: _307  and  _309
REMARK  128  A    between atoms: _309  and  _310
REMARK  129  A    between atoms: _309  and  _312
REMARK  130  A    between atoms: _312  and  _313
REMARK  131  A    between atoms: _316  and  _318
REMARK  132  A    between atoms: _318  and  _319
REMARK  133  A    between atoms: _318  and  _321
REMARK  134  A    between atoms: _321  and  _322
REMARK  135  A    between atoms: _325  and  _327
REMARK  136  A    between atoms: _327  and  _328
REMARK  137  A    between atoms: _330  and  _332
REMARK  138  A    between atoms: _332  and  _333
REMARK  139  A    between atoms: _336  and  _338
REMARK  140  A    between atoms: _338  and  _339
REMARK  141  A    between atoms: _338  and  _341
REMARK  142  A    between atoms: _341  and  _342
REMARK  143  A    between atoms: _345  and  _347
REMARK  144  A    between atoms: _347  and  _348
REMARK  145  A    between atoms: _347  and  _350
REMARK  146  A    between atoms: _350  and  _351
REMARK  147  A    between atoms: _354  and  _356
REMARK  148  A    between atoms: _356  and  _357
REMARK  149  A    between atoms: _356  and  _359
REMARK  150  A    between atoms: _359  and  _360
REMARK  151  A    between atoms: _363  and  _365
REMARK  152  A    between atoms: _365  and  _366
REMARK  153  A    between atoms: _365  and  _368
REMARK  154  A    between atoms: _371  and  _373
REMARK  155  A    between atoms: _373  and  _374
REMARK  156  A    between atoms: _373  and  _376
REMARK  157  A    between atoms: _376  and  _377
REMARK  158  A    between atoms: _377  and  _378
REMARK  159  A    between atoms: _378  and  _379
REMARK  160  A    between atoms: _379  and  _380
REMARK  161  A    between atoms: _384  and  _386
REMARK  162  A    between atoms: _386  and  _387
REMARK  163  A    between atoms: _386  and  _389
REMARK  164  A    between atoms: _389  and  _390
REMARK  165  A    between atoms: _390  and  _391
REMARK  166  A    between atoms: _393  and  _395
REMARK  167  A    between atoms: _395  and  _396
REMARK  168  A    between atoms: _395  and  _398
REMARK  169  A    between atoms: _398  and  _399
REMARK  170  A    between atoms: _402  and  _404
REMARK  171  A    between atoms: _404  and  _405
REMARK  172  A    between atoms: _407  and  _409
REMARK  173  A    between atoms: _409  and  _410
REMARK  174  A    between atoms: _412  and  _414
REMARK  175  A    between atoms: _414  and  _415
REMARK  176  A    between atoms: _414  and  _417
REMARK  177  A    between atoms: _417  and  _418
REMARK  178  A    between atoms: _421  and  _423
REMARK  179  A    between atoms: _423  and  _424
REMARK  180  A    between atoms: _426  and  _428
REMARK  181  A    between atoms: _428  and  _429
REMARK  182  A    between atoms: _431  and  _433
REMARK  183  A    between atoms: _433  and  _434
REMARK  184  A    between atoms: _433  and  _436
REMARK  185  A    between atoms: _436  and  _437
REMARK  186  A    between atoms: _443  and  _445
REMARK  187  A    between atoms: _445  and  _446
REMARK  188  A    between atoms: _445  and  _448
REMARK  189  A    between atoms: _448  and  _449
REMARK  190  A    between atoms: _452  and  _454
REMARK  191  A    between atoms: _454  and  _455
REMARK  192  A    between atoms: _454  and  _457
REMARK  193  A    between atoms: _457  and  _458
REMARK  194  A    between atoms: _461  and  _463
REMARK  195  A    between atoms: _463  and  _464
REMARK  196  A    between atoms: _463  and  _466
REMARK  197  A    between atoms: _466  and  _467
REMARK  198  A    between atoms: _471  and  _472
REMARK  199  A    between atoms: _477  and  _479
REMARK  200  A    between atoms: _479  and  _480
REMARK  201  A    between atoms: _479  and  _482
REMARK  202  A    between atoms: _485  and  _487
REMARK  203  A    between atoms: _487  and  _488
REMARK  204  A    between atoms: _487  and  _490
REMARK  205  A    between atoms: _490  and  _491
REMARK  206  A    between atoms: _496  and  _498
REMARK  207  A    between atoms: _498  and  _499
REMARK  208  A    between atoms: _498  and  _501
REMARK  209  A    between atoms: _501  and  _502
REMARK  210  A    between atoms: _505  and  _507
REMARK  211  A    between atoms: _507  and  _508
REMARK  212  A    between atoms: _507  and  _510
REMARK  213  A    between atoms: _510  and  _511
REMARK  214  A    between atoms: _514  and  _516
REMARK  215  A    between atoms: _516  and  _517
REMARK  216  A    between atoms: _519  and  _521
REMARK  217  A    between atoms: _521  and  _522
REMARK  218  A    between atoms: _521  and  _524
REMARK  219  A    between atoms: _524  and  _525
REMARK  220  A    between atoms: _525  and  _526
REMARK  221  A    between atoms: _526  and  _527
REMARK  222  A    between atoms: _536  and  _538
REMARK  223  A    between atoms: _538  and  _539
REMARK  224  A    between atoms: _538  and  _541
REMARK  225  A    between atoms: _541  and  _542
REMARK                            x       y       z     vdW  Elec       q    Type
REMARK                         _______ _______ _______ _____ _____    ______ ____
ROOT
ATOM      1  O   HOH     1       6.448  15.926  18.418  0.00  0.00    +0.000 OA
ENDROOT
TORSDOF 0
REMARK  Name = ../refined-set-2016/2i4u/2i4u_pocket.pdb
REMARK  225 active torsions:
REMARK  status: ('A' for Active; 'I' for Inactive)
REMARK    1  A    between atoms: _1  and  _3
REMARK    2  A    between atoms: _3  and  _4
REMARK    3  A    between atoms: _3  and  _6
REMARK    4  A    between atoms: _6  and  _7
REMARK    5  A    between atoms: _7  and  _8
REMARK    6  A    between atoms: _8  and  _9
REMARK    7  A    between atoms: _18  and  _20
REMARK    8  A    between atoms: _20  and  _21
REMARK    9  A    between atoms: _20  and  _23
REMARK   10  A    between atoms: _23  and  _24
REMARK   11  A    between atoms: _27  and  _29
REMARK   12  A    between atoms: _29  and  _30
REMARK   13  A    between atoms: _29  and  _32
REMARK   14  A    between atoms: _32  and  _33
REMARK   15  A    between atoms: _36  and  _38
REMARK   16  A    between atoms: _38  and  _39
REMARK   17  A    between atoms: _38  and  _41
REMARK   18  A    between atoms: _41  and  _42
REMARK   19  A    between atoms: _45  and  _47
REMARK   20  A    between atoms: _47  and  _48
REMARK   21  A    between atoms: _47  and  _50
REMARK   22  A    between atoms: _50  and  _51
REMARK   23  A    between atoms: _54  and  _56
REMARK   24  A    between atoms: _56  and  _57
REMARK   25  A    between atoms: _59  and  _61
REMARK   26  A    between atoms: _61  and  _62
REMARK   27  A    between atoms: _65  and  _67
REMARK   28  A    between atoms: _67  and  _68
REMARK   29  A    between atoms: _67  and  _70
REMARK   30  A    between atoms: _70  and  _71
REMARK   31  A    between atoms: _74  and  _76
REMARK   32  A    between atoms: _76  and  _77
REMARK   33  A    between atoms: _76  and  _79
REMARK   34  A    between atoms: _79  and  _80
REMARK   35  A    between atoms: _83  and  _85
REMARK   36  A    between atoms: _85  and  _86
REMARK   37  A    between atoms: _85  and  _88
REMARK   38  A    between atoms: _88  and  _89
REMARK   39  A    between atoms: _92  and  _94
REMARK   40  A    between atoms: _94  and  _95
REMARK   41  A    between atoms: _94  and  _97
REMARK   42  A    between atoms: _100  and  _102
REMARK   43  A    between atoms: _102  and  _103
REMARK   44  A    between atoms: _102  and  _105
REMARK   45  A    between atoms: _105  and  _106
REMARK   46  A    between atoms: _106  and  _107
REMARK   47  A    between atoms: _107  and  _108
REMARK   48  A    between atoms: _108  and  _109
REMARK   49  A    between atoms: _113  and  _115
REMARK   50  A    between atoms: _115  and  _116
REMARK   51  A    between atoms: _115  and  _118
REMARK   52  A    between atoms: _118  and  _119
REMARK   53  A    between atoms: _119  and  _120
REMARK   54  A    between atoms: _122  and  _124
REMARK   55  A    between atoms: _124  and  _125
REMARK   56  A    between atoms: _124  and  _127
REMARK   57  A    between atoms: _127  and  _128
REMARK   58  A    between atoms: _131  and  _133
REMARK   59  A    between atoms: _133  and  _134
REMARK   60  A    between atoms: _136  and  _138
REMARK   61  A    between atoms: _138  and  _139
REMARK   62  A    between atoms: _141  and  _143
REMARK   63  A    between atoms: _143  and  _144
REMARK   64  A    between atoms: _143  and  _146
REMARK   65  A    between atoms: _146  and  _147
REMARK   66  A    between atoms: _150  and  _152
REMARK   67  A    between atoms: _152  and  _153
REMARK   68  A    between atoms: _155  and  _157
REMARK   69  A    between atoms: _157  and  _158
REMARK   70  A    between atoms: _160  and  _162
REMARK   71  A    between atoms: _162  and  _163
REMARK   72  A    between atoms: _162  and  _165
REMARK   73  A    between atoms: _165  and  _166
REMARK   74  A    between atoms: _169  and  _171
REMARK   75  A    between atoms: _171  and  _172
REMARK   76  A    between atoms: _171  and  _174
REMARK   77  A    between atoms: _177  and  _179
REMARK   78  A    between atoms: _179  and  _180
REMARK   79  A    between atoms: _179  and  _182
REMARK   80  A    between atoms: _182  and  _183
REMARK   81  A    between atoms: _186  and  _188
REMARK   82  A    between atoms: _188  and  _189
REMARK   83  A    between atoms: _188  and  _191
REMARK   84  A    between atoms: _191  and  _192
REMARK   85  A    between atoms: _196  and  _197
REMARK   86  A    between atoms: _202  and  _204
REMARK   87  A    between atoms: _204  and  _205
REMARK   88  A    between atoms: _204  and  _207
REMARK   89  A    between atoms: _210  and  _212
REMARK   90  A    between atoms: _212  and  _213
REMARK   91  A    between atoms: _212  and  _215
REMARK   92  A    between atoms: _215  and  _216
REMARK   93  A    between atoms: _221  and  _223
REMARK   94  A    between atoms: _223  and  _224
REMARK   95  A    between atoms: _223  and  _226
REMARK   96  A    between atoms: _226  and  _227
REMARK   97  A    between atoms: _230  and  _232
REMARK   98  A    between atoms: _232  and  _233
REMARK   99  A    between atoms: _232  and  _235
REMARK  100  A    between atoms: _235  and  _236
REMARK  101  A    between atoms: _239  and  _241
REMARK  102  A    between atoms: _241  and  _242
REMARK  103  A    between atoms: _244  and  _246
REMARK  104  A    between atoms: _246  and  _247
REMARK  105  A    between atoms: _246  and  _249
REMARK  106  A    between atoms: _249  and  _250
REMARK  107  A    between atoms: _250  and  _251
REMARK  108  A    between atoms: _251  and  _252
REMARK  109  A    between atoms: _261  and  _263
REMARK  110  A    between atoms: _263  and  _264
REMARK  111  A    between atoms: _263  and  _266
REMARK  112  A    between atoms: _266  and  _267
REMARK  113  A    between atoms: _272  and  _274
REMARK  114  A    between atoms: _274  and  _275
REMARK  115  A    between atoms: _274  and  _277
REMARK  116  A    between atoms: _277  and  _278
REMARK  117  A    between atoms: _278  and  _279
REMARK  118  A    between atoms: _279  and  _280
REMARK  119  A    between atoms: _289  and  _291
REMARK  120  A    between atoms: _291  and  _292
REMARK  121  A    between atoms: _291  and  _294
REMARK  122  A    between atoms: _294  and  _295
REMARK  123  A    between atoms: _298  and  _300
REMARK  124  A    between atoms: _300  and  _301
REMARK  125  A    between atoms: _300  and  _303
REMARK  126  A    between atoms: _303  and  _304
REMARK  127  A    between atoms: _307  and  _309
REMARK  128  A    between atoms: _309  and  _310
REMARK  129  A    between atoms: _309  and  _312
REMARK  130  A    between atoms: _312  and  _313
REMARK  131  A    between atoms: _316  and  _318
REMARK  132  A    between atoms: _318  and  _319
REMARK  133  A    between atoms: _318  and  _321
REMARK  134  A    between atoms: _321  and  _322
REMARK  135  A    between atoms: _325  and  _327
REMARK  136  A    between atoms: _327  and  _328
REMARK  137  A    between atoms: _330  and  _332
REMARK  138  A    between atoms: _332  and  _333
REMARK  139  A    between atoms: _336  and  _338
REMARK  140  A    between atoms: _338  and  _339
REMARK  141  A    between atoms: _338  and  _341
REMARK  142  A    between atoms: _341  and  _342
REMARK  143  A    between atoms: _345  and  _347
REMARK  144  A    between atoms: _347  and  _348
REMARK  145  A    between atoms: _347  and  _350
REMARK  146  A    between atoms: _350  and  _351
REMARK  147  A    between atoms: _354  and  _356
REMARK  148  A    between atoms: _356  and  _357
REMARK  149  A    between atoms: _356  and  _359
REMARK  150  A    between atoms: _359  and  _360
REMARK  151  A    between atoms: _363  and  _365
REMARK  152  A    between atoms: _365  and  _366
REMARK  153  A    between atoms: _365  and  _368
REMARK  154  A    between atoms: _371  and  _373
REMARK  155  A    between atoms: _373  and  _374
REMARK  156  A    between atoms: _373  and  _376
REMARK  157  A    between atoms: _376  and  _377
REMARK  158  A    between atoms: _377  and  _378
REMARK  159  A    between atoms: _378  and  _379
REMARK  160  A    between atoms: _379  and  _380
REMARK  161  A    between atoms: _384  and  _386
REMARK  162  A    between atoms: _386  and  _387
REMARK  163  A    between atoms: _386  and  _389
REMARK  164  A    between atoms: _389  and  _390
REMARK  165  A    between atoms: _390  and  _391
REMARK  166  A    between atoms: _393  and  _395
REMARK  167  A    between atoms: _395  and  _396
REMARK  168  A    between atoms: _395  and  _398
REMARK  169  A    between atoms: _398  and  _399
REMARK  170  A    between atoms: _402  and  _404
REMARK  171  A    between atoms: _404  and  _405
REMARK  172  A    between atoms: _407  and  _409
REMARK  173  A    between atoms: _409  and  _410
REMARK  174  A    between atoms: _412  and  _414
REMARK  175  A    between atoms: _414  and  _415
REMARK  176  A    between atoms: _414  and  _417
REMARK  177  A    between atoms: _417  and  _418
REMARK  178  A    between atoms: _421  and  _423
REMARK  179  A    between atoms: _423  and  _424
REMARK  180  A    between atoms: _426  and  _428
REMARK  181  A    between atoms: _428  and  _429
REMARK  182  A    between atoms: _431  and  _433
REMARK  183  A    between atoms: _433  and  _434
REMARK  184  A    between atoms: _433  and  _436
REMARK  185  A    between atoms: _436  and  _437
REMARK  186  A    between atoms: _443  and  _445
REMARK  187  A    between atoms: _445  and  _446
REMARK  188  A    between atoms: _445  and  _448
REMARK  189  A    between atoms: _448  and  _449
REMARK  190  A    between atoms: _452  and  _454
REMARK  191  A    between atoms: _454  and  _455
REMARK  192  A    between atoms: _454  and  _457
REMARK  193  A    between atoms: _457  and  _458
REMARK  194  A    between atoms: _461  and  _463
REMARK  195  A    between atoms: _463  and  _464
REMARK  196  A    between atoms: _463  and  _466
REMARK  197  A    between atoms: _466  and  _467
REMARK  198  A    between atoms: _471  and  _472
REMARK  199  A    between atoms: _477  and  _479
REMARK  200  A    between atoms: _479  and  _480
REMARK  201  A    between atoms: _479  and  _482
REMARK  202  A    between atoms: _485  and  _487
REMARK  203  A    between atoms: _487  and  _488
REMARK  204  A    between atoms: _487  and  _490
REMARK  205  A    between atoms: _490  and  _491
REMARK  206  A    between atoms: _496  and  _498
REMARK  207  A    between atoms: _498  and  _499
REMARK  208  A    between atoms: _498  and  _501
REMARK  209  A    between atoms: _501  and  _502
REMARK  210  A    between atoms: _505  and  _507
REMARK  211  A    between atoms: _507  and  _508
REMARK  212  A    between atoms: _507  and  _510
REMARK  213  A    between atoms: _510  and  _511
REMARK  214  A    between atoms: _514  and  _516
REMARK  215  A    between atoms: _516  and  _517
REMARK  216  A    between atoms: _519  and  _521
REMARK  217  A    between atoms: _521  and  _522
REMARK  218  A    between atoms: _521  and  _524
REMARK  219  A    between atoms: _524  and  _525
REMARK  220  A    between atoms: _525  and  _526
REMARK  221  A    between atoms: _526  and  _527
REMARK  222  A    between atoms: _536  and  _538
REMARK  223  A    between atoms: _538  and  _539
REMARK  224  A    between atoms: _538  and  _541
REMARK  225  A    between atoms: _541  and  _542
REMARK                            x       y       z     vdW  Elec       q    Type
REMARK                         _______ _______ _______ _____ _____    ______ ____
ROOT
ATOM      1  O   HOH     1       8.914  14.701  19.187  0.00  0.00    +0.000 OA
ENDROOT
TORSDOF 0
REMARK  Name = ../refined-set-2016/2i4u/2i4u_pocket.pdb
REMARK  225 active torsions:
REMARK  status: ('A' for Active; 'I' for Inactive)
REMARK    1  A    between atoms: _1  and  _3
REMARK    2  A    between atoms: _3  and  _4
REMARK    3  A    between atoms: _3  and  _6
REMARK    4  A    between atoms: _6  and  _7
REMARK    5  A    between atoms: _7  and  _8
REMARK    6  A    between atoms: _8  and  _9
REMARK    7  A    between atoms: _18  and  _20
REMARK    8  A    between atoms: _20  and  _21
REMARK    9  A    between atoms: _20  and  _23
REMARK   10  A    between atoms: _23  and  _24
REMARK   11  A    between atoms: _27  and  _29
REMARK   12  A    between atoms: _29  and  _30
REMARK   13  A    between atoms: _29  and  _32
REMARK   14  A    between atoms: _32  and  _33
REMARK   15  A    between atoms: _36  and  _38
REMARK   16  A    between atoms: _38  and  _39
REMARK   17  A    between atoms: _38  and  _41
REMARK   18  A    between atoms: _41  and  _42
REMARK   19  A    between atoms: _45  and  _47
REMARK   20  A    between atoms: _47  and  _48
REMARK   21  A    between atoms: _47  and  _50
REMARK   22  A    between atoms: _50  and  _51
REMARK   23  A    between atoms: _54  and  _56
REMARK   24  A    between atoms: _56  and  _57
REMARK   25  A    between atoms: _59  and  _61
REMARK   26  A    between atoms: _61  and  _62
REMARK   27  A    between atoms: _65  and  _67
REMARK   28  A    between atoms: _67  and  _68
REMARK   29  A    between atoms: _67  and  _70
REMARK   30  A    between atoms: _70  and  _71
REMARK   31  A    between atoms: _74  and  _76
REMARK   32  A    between atoms: _76  and  _77
REMARK   33  A    between atoms: _76  and  _79
REMARK   34  A    between atoms: _79  and  _80
REMARK   35  A    between atoms: _83  and  _85
REMARK   36  A    between atoms: _85  and  _86
REMARK   37  A    between atoms: _85  and  _88
REMARK   38  A    between atoms: _88  and  _89
REMARK   39  A    between atoms: _92  and  _94
REMARK   40  A    between atoms: _94  and  _95
REMARK   41  A    between atoms: _94  and  _97
REMARK   42  A    between atoms: _100  and  _102
REMARK   43  A    between atoms: _102  and  _103
REMARK   44  A    between atoms: _102  and  _105
REMARK   45  A    between atoms: _105  and  _106
REMARK   46  A    between atoms: _106  and  _107
REMARK   47  A    between atoms: _107  and  _108
REMARK   48  A    between atoms: _108  and  _109
REMARK   49  A    between atoms: _113  and  _115
REMARK   50  A    between atoms: _115  and  _116
REMARK   51  A    between atoms: _115  and  _118
REMARK   52  A    between atoms: _118  and  _119
REMARK   53  A    between atoms: _119  and  _120
REMARK   54  A    between atoms: _122  and  _124
REMARK   55  A    between atoms: _124  and  _125
REMARK   56  A    between atoms: _124  and  _127
REMARK   57  A    between atoms: _127  and  _128
REMARK   58  A    between atoms: _131  and  _133
REMARK   59  A    between atoms: _133  and  _134
REMARK   60  A    between atoms: _136  and  _138
REMARK   61  A    between atoms: _138  and  _139
REMARK   62  A    between atoms: _141  and  _143
REMARK   63  A    between atoms: _143  and  _144
REMARK   64  A    between atoms: _143  and  _146
REMARK   65  A    between atoms: _146  and  _147
REMARK   66  A    between atoms: _150  and  _152
REMARK   67  A    between atoms: _152  and  _153
REMARK   68  A    between atoms: _155  and  _157
REMARK   69  A    between atoms: _157  and  _158
REMARK   70  A    between atoms: _160  and  _162
REMARK   71  A    between atoms: _162  and  _163
REMARK   72  A    between atoms: _162  and  _165
REMARK   73  A    between atoms: _165  and  _166
REMARK   74  A    between atoms: _169  and  _171
REMARK   75  A    between atoms: _171  and  _172
REMARK   76  A    between atoms: _171  and  _174
REMARK   77  A    between atoms: _177  and  _179
REMARK   78  A    between atoms: _179  and  _180
REMARK   79  A    between atoms: _179  and  _182
REMARK   80  A    between atoms: _182  and  _183
REMARK   81  A    between atoms: _186  and  _188
REMARK   82  A    between atoms: _188  and  _189
REMARK   83  A    between atoms: _188  and  _191
REMARK   84  A    between atoms: _191  and  _192
REMARK   85  A    between atoms: _196  and  _197
REMARK   86  A    between atoms: _202  and  _204
REMARK   87  A    between atoms: _204  and  _205
REMARK   88  A    between atoms: _204  and  _207
REMARK   89  A    between atoms: _210  and  _212
REMARK   90  A    between atoms: _212  and  _213
REMARK   91  A    between atoms: _212  and  _215
REMARK   92  A    between atoms: _215  and  _216
REMARK   93  A    between atoms: _221  and  _223
REMARK   94  A    between atoms: _223  and  _224
REMARK   95  A    between atoms: _223  and  _226
REMARK   96  A    between atoms: _226  and  _227
REMARK   97  A    between atoms: _230  and  _232
REMARK   98  A    between atoms: _232  and  _233
REMARK   99  A    between atoms: _232  and  _235
REMARK  100  A    between atoms: _235  and  _236
REMARK  101  A    between atoms: _239  and  _241
REMARK  102  A    between atoms: _241  and  _242
REMARK  103  A    between atoms: _244  and  _246
REMARK  104  A    between atoms: _246  and  _247
REMARK  105  A    between atoms: _246  and  _249
REMARK  106  A    between atoms: _249  and  _250
REMARK  107  A    between atoms: _250  and  _251
REMARK  108  A    between atoms: _251  and  _252
REMARK  109  A    between atoms: _261  and  _263
REMARK  110  A    between atoms: _263  and  _264
REMARK  111  A    between atoms: _263  and  _266
REMARK  112  A    between atoms: _266  and  _267
REMARK  113  A    between atoms: _272  and  _274
REMARK  114  A    between atoms: _274  and  _275
REMARK  115  A    between atoms: _274  and  _277
REMARK  116  A    between atoms: _277  and  _278
REMARK  117  A    between atoms: _278  and  _279
REMARK  118  A    between atoms: _279  and  _280
REMARK  119  A    between atoms: _289  and  _291
REMARK  120  A    between atoms: _291  and  _292
REMARK  121  A    between atoms: _291  and  _294
REMARK  122  A    between atoms: _294  and  _295
REMARK  123  A    between atoms: _298  and  _300
REMARK  124  A    between atoms: _300  and  _301
REMARK  125  A    between atoms: _300  and  _303
REMARK  126  A    between atoms: _303  and  _304
REMARK  127  A    between atoms: _307  and  _309
REMARK  128  A    between atoms: _309  and  _310
REMARK  129  A    between atoms: _309  and  _312
REMARK  130  A    between atoms: _312  and  _313
REMARK  131  A    between atoms: _316  and  _318
REMARK  132  A    between atoms: _318  and  _319
REMARK  133  A    between atoms: _318  and  _321
REMARK  134  A    between atoms: _321  and  _322
REMARK  135  A    between atoms: _325  and  _327
REMARK  136  A    between atoms: _327  and  _328
REMARK  137  A    between atoms: _330  and  _332
REMARK  138  A    between atoms: _332  and  _333
REMARK  139  A    between atoms: _336  and  _338
REMARK  140  A    between atoms: _338  and  _339
REMARK  141  A    between atoms: _338  and  _341
REMARK  142  A    between atoms: _341  and  _342
REMARK  143  A    between atoms: _345  and  _347
REMARK  144  A    between atoms: _347  and  _348
REMARK  145  A    between atoms: _347  and  _350
REMARK  146  A    between atoms: _350  and  _351
REMARK  147  A    between atoms: _354  and  _356
REMARK  148  A    between atoms: _356  and  _357
REMARK  149  A    between atoms: _356  and  _359
REMARK  150  A    between atoms: _359  and  _360
REMARK  151  A    between atoms: _363  and  _365
REMARK  152  A    between atoms: _365  and  _366
REMARK  153  A    between atoms: _365  and  _368
REMARK  154  A    between atoms: _371  and  _373
REMARK  155  A    between atoms: _373  and  _374
REMARK  156  A    between atoms: _373  and  _376
REMARK  157  A    between atoms: _376  and  _377
REMARK  158  A    between atoms: _377  and  _378
REMARK  159  A    between atoms: _378  and  _379
REMARK  160  A    between atoms: _379  and  _380
REMARK  161  A    between atoms: _384  and  _386
REMARK  162  A    between atoms: _386  and  _387
REMARK  163  A    between atoms: _386  and  _389
REMARK  164  A    between atoms: _389  and  _390
REMARK  165  A    between atoms: _390  and  _391
REMARK  166  A    between atoms: _393  and  _395
REMARK  167  A    between atoms: _395  and  _396
REMARK  168  A    between atoms: _395  and  _398
REMARK  169  A    between atoms: _398  and  _399
REMARK  170  A    between atoms: _402  and  _404
REMARK  171  A    between atoms: _404  and  _405
REMARK  172  A    between atoms: _407  and  _409
REMARK  173  A    between atoms: _409  and  _410
REMARK  174  A    between atoms: _412  and  _414
REMARK  175  A    between atoms: _414  and  _415
REMARK  176  A    between atoms: _414  and  _417
REMARK  177  A    between atoms: _417  and  _418
REMARK  178  A    between atoms: _421  and  _423
REMARK  179  A    between atoms: _423  and  _424
REMARK  180  A    between atoms: _426  and  _428
REMARK  181  A    between atoms: _428  and  _429
REMARK  182  A    between atoms: _431  and  _433
REMARK  183  A    between atoms: _433  and  _434
REMARK  184  A    between atoms: _433  and  _436
REMARK  185  A    between atoms: _436  and  _437
REMARK  186  A    between atoms: _443  and  _445
REMARK  187  A    between atoms: _445  and  _446
REMARK  188  A    between atoms: _445  and  _448
REMARK  189  A    between atoms: _448  and  _449
REMARK  190  A    between atoms: _452  and  _454
REMARK  191  A    between atoms: _454  and  _455
REMARK  192  A    between atoms: _454  and  _457
REMARK  193  A    between atoms: _457  and  _458
REMARK  194  A    between atoms: _461  and  _463
REMARK  195  A    between atoms: _463  and  _464
REMARK  196  A    between atoms: _463  and  _466
REMARK  197  A    between atoms: _466  and  _467
REMARK  198  A    between atoms: _471  and  _472
REMARK  199  A    between atoms: _477  and  _479
REMARK  200  A    between atoms: _479  and  _480
REMARK  201  A    between atoms: _479  and  _482
REMARK  202  A    between atoms: _485  and  _487
REMARK  203  A    between atoms: _487  and  _488
REMARK  204  A    between atoms: _487  and  _490
REMARK  205  A    between atoms: _490  and  _491
REMARK  206  A    between atoms: _496  and  _498
REMARK  207  A    between atoms: _498  and  _499
REMARK  208  A    between atoms: _498  and  _501
REMARK  209  A    between atoms: _501  and  _502
REMARK  210  A    between atoms: _505  and  _507
REMARK  211  A    between atoms: _507  and  _508
REMARK  212  A    between atoms: _507  and  _510
REMARK  213  A    between atoms: _510  and  _511
REMARK  214  A    between atoms: _514  and  _516
REMARK  215  A    between atoms: _516  and  _517
REMARK  216  A    between atoms: _519  and  _521
REMARK  217  A    between atoms: _521  and  _522
REMARK  218  A    between atoms: _521  and  _524
REMARK  219  A    between atoms: _524  and  _525
REMARK  220  A    between atoms: _525  and  _526
REMARK  221  A    between atoms: _526  and  _527
REMARK  222  A    between atoms: _536  and  _538
REMARK  223  A    between atoms: _538  and  _539
REMARK  224  A    between atoms: _538  and  _541
REMARK  225  A    between atoms: _541  and  _542
REMARK                            x       y       z     vdW  Elec       q    Type
REMARK                         _______ _______ _______ _____ _____    ______ ____
ROOT
ATOM      1  O   HOH     1       3.632  19.757  23.011  0.00  0.00    +0.000 OA
ENDROOT
TORSDOF 0
