REMARK  Name = ../refined-set-2016/4na9/4na9_pocket.pdb
REMARK  200 active torsions:
REMARK  status: ('A' for Active; 'I' for Inactive)
REMARK    1  A    between atoms: _1  and  _5
REMARK    2  A    between atoms: _5  and  _6
REMARK    3  A    between atoms: _5  and  _8
REMARK    4  A    between atoms: _8  and  _9
REMARK    5  A    between atoms: _12  and  _14
REMARK    6  A    between atoms: _14  and  _15
REMARK    7  A    between atoms: _14  and  _17
REMARK    8  A    between atoms: _20  and  _22
REMARK    9  A    between atoms: _22  and  _23
REMARK   10  A    between atoms: _22  and  _25
REMARK   11  A    between atoms: _25  and  _26
REMARK   12  A    between atoms: _26  and  _27
REMARK   13  A    between atoms: _32  and  _34
REMARK   14  A    between atoms: _34  and  _35
REMARK   15  A    between atoms: _34  and  _37
REMARK   16  A    between atoms: _37  and  _38
REMARK   17  A    between atoms: _41  and  _43
REMARK   18  A    between atoms: _43  and  _44
REMARK   19  A    between atoms: _43  and  _46
REMARK   20  A    between atoms: _46  and  _47
REMARK   21  A    between atoms: _47  and  _82
REMARK   22  A    between atoms: _48  and  _50
REMARK   23  A    between atoms: _50  and  _51
REMARK   24  A    between atoms: _53  and  _55
REMARK   25  A    between atoms: _55  and  _56
REMARK   26  A    between atoms: _59  and  _61
REMARK   27  A    between atoms: _61  and  _62
REMARK   28  A    between atoms: _65  and  _67
REMARK   29  A    between atoms: _67  and  _68
REMARK   30  A    between atoms: _67  and  _70
REMARK   31  A    between atoms: _70  and  _71
REMARK   32  A    between atoms: _76  and  _78
REMARK   33  A    between atoms: _78  and  _79
REMARK   34  A    between atoms: _78  and  _81
REMARK   35  A    between atoms: _81  and  _82
REMARK   36  A    between atoms: _83  and  _85
REMARK   37  A    between atoms: _85  and  _86
REMARK   38  A    between atoms: _85  and  _88
REMARK   39  A    between atoms: _88  and  _89
REMARK   40  A    between atoms: _95  and  _97
REMARK   41  A    between atoms: _97  and  _98
REMARK   42  A    between atoms: _97  and  _100
REMARK   43  A    between atoms: _100  and  _101
REMARK   44  A    between atoms: _104  and  _106
REMARK   45  A    between atoms: _106  and  _107
REMARK   46  A    between atoms: _106  and  _109
REMARK   47  A    between atoms: _109  and  _110
REMARK   48  A    between atoms: _110  and  _111
REMARK   49  A    between atoms: _111  and  _112
REMARK   50  A    between atoms: _112  and  _113
REMARK   51  A    between atoms: _117  and  _119
REMARK   52  A    between atoms: _119  and  _120
REMARK   53  A    between atoms: _119  and  _122
REMARK   54  A    between atoms: _122  and  _123
REMARK   55  A    between atoms: _128  and  _129
REMARK   56  A    between atoms: _132  and  _133
REMARK   57  A    between atoms: _138  and  _140
REMARK   58  A    between atoms: _140  and  _141
REMARK   59  A    between atoms: _143  and  _145
REMARK   60  A    between atoms: _145  and  _146
REMARK   61  A    between atoms: _145  and  _148
REMARK   62  A    between atoms: _148  and  _149
REMARK   63  A    between atoms: _152  and  _154
REMARK   64  A    between atoms: _154  and  _155
REMARK   65  A    between atoms: _154  and  _157
REMARK   66  A    between atoms: _157  and  _158
REMARK   67  A    between atoms: _161  and  _163
REMARK   68  A    between atoms: _163  and  _164
REMARK   69  A    between atoms: _163  and  _166
REMARK   70  A    between atoms: _166  and  _167
REMARK   71  A    between atoms: _170  and  _172
REMARK   72  A    between atoms: _172  and  _173
REMARK   73  A    between atoms: _172  and  _175
REMARK   74  A    between atoms: _178  and  _180
REMARK   75  A    between atoms: _180  and  _181
REMARK   76  A    between atoms: _183  and  _185
REMARK   77  A    between atoms: _185  and  _186
REMARK   78  A    between atoms: _185  and  _188
REMARK   79  A    between atoms: _188  and  _189
REMARK   80  A    between atoms: _189  and  _190
REMARK   81  A    between atoms: _195  and  _197
REMARK   82  A    between atoms: _197  and  _198
REMARK   83  A    between atoms: _197  and  _200
REMARK   84  A    between atoms: _200  and  _201
REMARK   85  A    between atoms: _204  and  _206
REMARK   86  A    between atoms: _206  and  _207
REMARK   87  A    between atoms: _206  and  _209
REMARK   88  A    between atoms: _209  and  _210
REMARK   89  A    between atoms: _213  and  _215
REMARK   90  A    between atoms: _215  and  _216
REMARK   91  A    between atoms: _215  and  _218
REMARK   92  A    between atoms: _218  and  _219
REMARK   93  A    between atoms: _219  and  _220
REMARK   94  A    between atoms: _220  and  _221
REMARK   95  A    between atoms: _230  and  _232
REMARK   96  A    between atoms: _232  and  _233
REMARK   97  A    between atoms: _235  and  _237
REMARK   98  A    between atoms: _237  and  _238
REMARK   99  A    between atoms: _237  and  _240
REMARK  100  A    between atoms: _240  and  _241
REMARK  101  A    between atoms: _244  and  _246
REMARK  102  A    between atoms: _246  and  _247
REMARK  103  A    between atoms: _250  and  _252
REMARK  104  A    between atoms: _252  and  _253
REMARK  105  A    between atoms: _252  and  _255
REMARK  106  A    between atoms: _255  and  _256
REMARK  107  A    between atoms: _261  and  _262
REMARK  108  A    between atoms: _264  and  _266
REMARK  109  A    between atoms: _266  and  _267
REMARK  110  A    between atoms: _266  and  _269
REMARK  111  A    between atoms: _269  and  _270
REMARK  112  A    between atoms: _270  and  _271
REMARK  113  A    between atoms: _271  and  _272
REMARK  114  A    between atoms: _272  and  _273
REMARK  115  A    between atoms: _277  and  _279
REMARK  116  A    between atoms: _279  and  _280
REMARK  117  A    between atoms: _279  and  _282
REMARK  118  A    between atoms: _282  and  _283
REMARK  119  A    between atoms: _286  and  _288
REMARK  120  A    between atoms: _288  and  _289
REMARK  121  A    between atoms: _288  and  _291
REMARK  122  A    between atoms: _291  and  _292
REMARK  123  A    between atoms: _294  and  _296
REMARK  124  A    between atoms: _296  and  _297
REMARK  125  A    between atoms: _296  and  _299
REMARK  126  A    between atoms: _299  and  _300
REMARK  127  A    between atoms: _300  and  _415
REMARK  128  A    between atoms: _301  and  _303
REMARK  129  A    between atoms: _303  and  _304
REMARK  130  A    between atoms: _303  and  _306
REMARK  131  A    between atoms: _306  and  _307
REMARK  132  A    between atoms: _307  and  _308
REMARK  133  A    between atoms: _308  and  _309
REMARK  134  A    between atoms: _309  and  _310
REMARK  135  A    between atoms: _314  and  _316
REMARK  136  A    between atoms: _316  and  _317
REMARK  137  A    between atoms: _319  and  _321
REMARK  138  A    between atoms: _321  and  _322
REMARK  139  A    between atoms: _321  and  _324
REMARK  140  A    between atoms: _324  and  _325
REMARK  141  A    between atoms: _328  and  _330
REMARK  142  A    between atoms: _330  and  _331
REMARK  143  A    between atoms: _330  and  _333
REMARK  144  A    between atoms: _333  and  _334
REMARK  145  A    between atoms: _336  and  _338
REMARK  146  A    between atoms: _338  and  _339
REMARK  147  A    between atoms: _341  and  _343
REMARK  148  A    between atoms: _343  and  _344
REMARK  149  A    between atoms: _346  and  _348
REMARK  150  A    between atoms: _348  and  _349
REMARK  151  A    between atoms: _348  and  _351
REMARK  152  A    between atoms: _351  and  _352
REMARK  153  A    between atoms: _355  and  _357
REMARK  154  A    between atoms: _357  and  _358
REMARK  155  A    between atoms: _357  and  _360
REMARK  156  A    between atoms: _363  and  _365
REMARK  157  A    between atoms: _365  and  _366
REMARK  158  A    between atoms: _365  and  _368
REMARK  159  A    between atoms: _368  and  _369
REMARK  160  A    between atoms: _371  and  _373
REMARK  161  A    between atoms: _373  and  _374
REMARK  162  A    between atoms: _373  and  _376
REMARK  163  A    between atoms: _376  and  _377
REMARK  164  A    between atoms: _387  and  _389
REMARK  165  A    between atoms: _389  and  _390
REMARK  166  A    between atoms: _392  and  _394
REMARK  167  A    between atoms: _394  and  _395
REMARK  168  A    between atoms: _394  and  _397
REMARK  169  A    between atoms: _397  and  _398
REMARK  170  A    between atoms: _398  and  _399
REMARK  171  A    between atoms: _404  and  _406
REMARK  172  A    between atoms: _406  and  _407
REMARK  173  A    between atoms: _409  and  _411
REMARK  174  A    between atoms: _411  and  _412
REMARK  175  A    between atoms: _411  and  _414
REMARK  176  A    between atoms: _414  and  _415
REMARK  177  A    between atoms: _416  and  _418
REMARK  178  A    between atoms: _418  and  _419
REMARK  179  A    between atoms: _422  and  _424
REMARK  180  A    between atoms: _424  and  _425
REMARK  181  A    between atoms: _424  and  _427
REMARK  182  A    between atoms: _427  and  _428
REMARK  183  A    between atoms: _431  and  _433
REMARK  184  A    between atoms: _433  and  _434
REMARK  185  A    between atoms: _433  and  _436
REMARK  186  A    between atoms: _436  and  _437
REMARK  187  A    between atoms: _442  and  _444
REMARK  188  A    between atoms: _444  and  _445
REMARK  189  A    between atoms: _444  and  _447
REMARK  190  A    between atoms: _447  and  _448
REMARK  191  A    between atoms: _454  and  _456
REMARK  192  A    between atoms: _456  and  _457
REMARK  193  A    between atoms: _459  and  _461
REMARK  194  A    between atoms: _461  and  _462
REMARK  195  A    between atoms: _461  and  _464
REMARK  196  A    between atoms: _467  and  _469
REMARK  197  A    between atoms: _469  and  _470
REMARK  198  A    between atoms: _469  and  _472
REMARK  199  A    between atoms: _472  and  _473
REMARK  200  A    between atoms: _478  and  _479
REMARK                            x       y       z     vdW  Elec       q    Type
REMARK                         _______ _______ _______ _____ _____    ______ ____
ROOT
ATOM      1  C   ILE A   1      19.073  34.669  30.865  0.00  0.00    +0.202 C 
ATOM      2  N   VAL A   2      18.345  34.273  31.908  0.00  0.00    -0.301 N 
ATOM      3  H   VAL A   2      17.555  33.620  31.729  0.00  0.00    +0.150 HD
ATOM      4  O   ILE A   1      20.047  35.425  30.964  0.00  0.00    -0.277 OA
ENDROOT
BRANCH   1   5
ATOM      5  CA  ILE A   1      18.674  34.095  29.510  0.00  0.00    +0.013 C 
BRANCH   5   6
ATOM      6  N   ILE A   1      18.463  35.176  28.552  0.00  0.00    +0.387 N 
ATOM      7  H1  ILE A   1      17.705  35.800  28.896  0.00  0.00    -0.089 HD
ATOM      8  H2  ILE A   1      19.342  35.722  28.448  0.00  0.00    -0.089 HD
ATOM      9  H3  ILE A   1      18.192  34.774  27.632  0.00  0.00    -0.089 HD
ENDBRANCH   5   6
BRANCH   5  10
ATOM     10  CB  ILE A   1      19.727  33.059  28.981  0.00  0.00    -0.011 C 
ATOM     11  CG2 ILE A   1      20.073  31.994  30.032  0.00  0.00    -0.002 C 
BRANCH  10  12
ATOM     12  CG1 ILE A   1      19.309  32.406  27.620  0.00  0.00    -0.002 C 
ATOM     13  CD1 ILE A   1      18.082  31.404  27.676  0.00  0.00    -0.000 C 
ENDBRANCH  10  12
ENDBRANCH   5  10
ENDBRANCH   1   5
BRANCH   2  14
ATOM     14  CA  VAL A   2      18.582  34.695  33.287  0.00  0.00    +0.137 C 
BRANCH  14  15
ATOM     15  CB  VAL A   2      17.259  35.164  33.956  0.00  0.00    +0.026 C 
ATOM     16  CG2 VAL A   2      17.527  35.737  35.350  0.00  0.00    +0.002 C 
ATOM     17  CG1 VAL A   2      16.553  36.195  33.097  0.00  0.00    +0.002 C 
ENDBRANCH  14  15
BRANCH  14  18
ATOM     18  C   VAL A   2      19.243  33.538  34.084  0.00  0.00    +0.227 C 
ATOM     19  O   VAL A   2      18.709  32.442  34.113  0.00  0.00    -0.286 OA
ENDBRANCH  14  18
ENDBRANCH   2  14
TORSDOF 7
REMARK  Name = ../refined-set-2016/4na9/4na9_pocket.pdb
REMARK  200 active torsions:
REMARK  status: ('A' for Active; 'I' for Inactive)
REMARK    1  A    between atoms: _1  and  _5
REMARK    2  A    between atoms: _5  and  _6
REMARK    3  A    between atoms: _5  and  _8
REMARK    4  A    between atoms: _8  and  _9
REMARK    5  A    between atoms: _12  and  _14
REMARK    6  A    between atoms: _14  and  _15
REMARK    7  A    between atoms: _14  and  _17
REMARK    8  A    between atoms: _20  and  _22
REMARK    9  A    between atoms: _22  and  _23
REMARK   10  A    between atoms: _22  and  _25
REMARK   11  A    between atoms: _25  and  _26
REMARK   12  A    between atoms: _26  and  _27
REMARK   13  A    between atoms: _32  and  _34
REMARK   14  A    between atoms: _34  and  _35
REMARK   15  A    between atoms: _34  and  _37
REMARK   16  A    between atoms: _37  and  _38
REMARK   17  A    between atoms: _41  and  _43
REMARK   18  A    between atoms: _43  and  _44
REMARK   19  A    between atoms: _43  and  _46
REMARK   20  A    between atoms: _46  and  _47
REMARK   21  A    between atoms: _47  and  _82
REMARK   22  A    between atoms: _48  and  _50
REMARK   23  A    between atoms: _50  and  _51
REMARK   24  A    between atoms: _53  and  _55
REMARK   25  A    between atoms: _55  and  _56
REMARK   26  A    between atoms: _59  and  _61
REMARK   27  A    between atoms: _61  and  _62
REMARK   28  A    between atoms: _65  and  _67
REMARK   29  A    between atoms: _67  and  _68
REMARK   30  A    between atoms: _67  and  _70
REMARK   31  A    between atoms: _70  and  _71
REMARK   32  A    between atoms: _76  and  _78
REMARK   33  A    between atoms: _78  and  _79
REMARK   34  A    between atoms: _78  and  _81
REMARK   35  A    between atoms: _81  and  _82
REMARK   36  A    between atoms: _83  and  _85
REMARK   37  A    between atoms: _85  and  _86
REMARK   38  A    between atoms: _85  and  _88
REMARK   39  A    between atoms: _88  and  _89
REMARK   40  A    between atoms: _95  and  _97
REMARK   41  A    between atoms: _97  and  _98
REMARK   42  A    between atoms: _97  and  _100
REMARK   43  A    between atoms: _100  and  _101
REMARK   44  A    between atoms: _104  and  _106
REMARK   45  A    between atoms: _106  and  _107
REMARK   46  A    between atoms: _106  and  _109
REMARK   47  A    between atoms: _109  and  _110
REMARK   48  A    between atoms: _110  and  _111
REMARK   49  A    between atoms: _111  and  _112
REMARK   50  A    between atoms: _112  and  _113
REMARK   51  A    between atoms: _117  and  _119
REMARK   52  A    between atoms: _119  and  _120
REMARK   53  A    between atoms: _119  and  _122
REMARK   54  A    between atoms: _122  and  _123
REMARK   55  A    between atoms: _128  and  _129
REMARK   56  A    between atoms: _132  and  _133
REMARK   57  A    between atoms: _138  and  _140
REMARK   58  A    between atoms: _140  and  _141
REMARK   59  A    between atoms: _143  and  _145
REMARK   60  A    between atoms: _145  and  _146
REMARK   61  A    between atoms: _145  and  _148
REMARK   62  A    between atoms: _148  and  _149
REMARK   63  A    between atoms: _152  and  _154
REMARK   64  A    between atoms: _154  and  _155
REMARK   65  A    between atoms: _154  and  _157
REMARK   66  A    between atoms: _157  and  _158
REMARK   67  A    between atoms: _161  and  _163
REMARK   68  A    between atoms: _163  and  _164
REMARK   69  A    between atoms: _163  and  _166
REMARK   70  A    between atoms: _166  and  _167
REMARK   71  A    between atoms: _170  and  _172
REMARK   72  A    between atoms: _172  and  _173
REMARK   73  A    between atoms: _172  and  _175
REMARK   74  A    between atoms: _178  and  _180
REMARK   75  A    between atoms: _180  and  _181
REMARK   76  A    between atoms: _183  and  _185
REMARK   77  A    between atoms: _185  and  _186
REMARK   78  A    between atoms: _185  and  _188
REMARK   79  A    between atoms: _188  and  _189
REMARK   80  A    between atoms: _189  and  _190
REMARK   81  A    between atoms: _195  and  _197
REMARK   82  A    between atoms: _197  and  _198
REMARK   83  A    between atoms: _197  and  _200
REMARK   84  A    between atoms: _200  and  _201
REMARK   85  A    between atoms: _204  and  _206
REMARK   86  A    between atoms: _206  and  _207
REMARK   87  A    between atoms: _206  and  _209
REMARK   88  A    between atoms: _209  and  _210
REMARK   89  A    between atoms: _213  and  _215
REMARK   90  A    between atoms: _215  and  _216
REMARK   91  A    between atoms: _215  and  _218
REMARK   92  A    between atoms: _218  and  _219
REMARK   93  A    between atoms: _219  and  _220
REMARK   94  A    between atoms: _220  and  _221
REMARK   95  A    between atoms: _230  and  _232
REMARK   96  A    between atoms: _232  and  _233
REMARK   97  A    between atoms: _235  and  _237
REMARK   98  A    between atoms: _237  and  _238
REMARK   99  A    between atoms: _237  and  _240
REMARK  100  A    between atoms: _240  and  _241
REMARK  101  A    between atoms: _244  and  _246
REMARK  102  A    between atoms: _246  and  _247
REMARK  103  A    between atoms: _250  and  _252
REMARK  104  A    between atoms: _252  and  _253
REMARK  105  A    between atoms: _252  and  _255
REMARK  106  A    between atoms: _255  and  _256
REMARK  107  A    between atoms: _261  and  _262
REMARK  108  A    between atoms: _264  and  _266
REMARK  109  A    between atoms: _266  and  _267
REMARK  110  A    between atoms: _266  and  _269
REMARK  111  A    between atoms: _269  and  _270
REMARK  112  A    between atoms: _270  and  _271
REMARK  113  A    between atoms: _271  and  _272
REMARK  114  A    between atoms: _272  and  _273
REMARK  115  A    between atoms: _277  and  _279
REMARK  116  A    between atoms: _279  and  _280
REMARK  117  A    between atoms: _279  and  _282
REMARK  118  A    between atoms: _282  and  _283
REMARK  119  A    between atoms: _286  and  _288
REMARK  120  A    between atoms: _288  and  _289
REMARK  121  A    between atoms: _288  and  _291
REMARK  122  A    between atoms: _291  and  _292
REMARK  123  A    between atoms: _294  and  _296
REMARK  124  A    between atoms: _296  and  _297
REMARK  125  A    between atoms: _296  and  _299
REMARK  126  A    between atoms: _299  and  _300
REMARK  127  A    between atoms: _300  and  _415
REMARK  128  A    between atoms: _301  and  _303
REMARK  129  A    between atoms: _303  and  _304
REMARK  130  A    between atoms: _303  and  _306
REMARK  131  A    between atoms: _306  and  _307
REMARK  132  A    between atoms: _307  and  _308
REMARK  133  A    between atoms: _308  and  _309
REMARK  134  A    between atoms: _309  and  _310
REMARK  135  A    between atoms: _314  and  _316
REMARK  136  A    between atoms: _316  and  _317
REMARK  137  A    between atoms: _319  and  _321
REMARK  138  A    between atoms: _321  and  _322
REMARK  139  A    between atoms: _321  and  _324
REMARK  140  A    between atoms: _324  and  _325
REMARK  141  A    between atoms: _328  and  _330
REMARK  142  A    between atoms: _330  and  _331
REMARK  143  A    between atoms: _330  and  _333
REMARK  144  A    between atoms: _333  and  _334
REMARK  145  A    between atoms: _336  and  _338
REMARK  146  A    between atoms: _338  and  _339
REMARK  147  A    between atoms: _341  and  _343
REMARK  148  A    between atoms: _343  and  _344
REMARK  149  A    between atoms: _346  and  _348
REMARK  150  A    between atoms: _348  and  _349
REMARK  151  A    between atoms: _348  and  _351
REMARK  152  A    between atoms: _351  and  _352
REMARK  153  A    between atoms: _355  and  _357
REMARK  154  A    between atoms: _357  and  _358
REMARK  155  A    between atoms: _357  and  _360
REMARK  156  A    between atoms: _363  and  _365
REMARK  157  A    between atoms: _365  and  _366
REMARK  158  A    between atoms: _365  and  _368
REMARK  159  A    between atoms: _368  and  _369
REMARK  160  A    between atoms: _371  and  _373
REMARK  161  A    between atoms: _373  and  _374
REMARK  162  A    between atoms: _373  and  _376
REMARK  163  A    between atoms: _376  and  _377
REMARK  164  A    between atoms: _387  and  _389
REMARK  165  A    between atoms: _389  and  _390
REMARK  166  A    between atoms: _392  and  _394
REMARK  167  A    between atoms: _394  and  _395
REMARK  168  A    between atoms: _394  and  _397
REMARK  169  A    between atoms: _397  and  _398
REMARK  170  A    between atoms: _398  and  _399
REMARK  171  A    between atoms: _404  and  _406
REMARK  172  A    between atoms: _406  and  _407
REMARK  173  A    between atoms: _409  and  _411
REMARK  174  A    between atoms: _411  and  _412
REMARK  175  A    between atoms: _411  and  _414
REMARK  176  A    between atoms: _414  and  _415
REMARK  177  A    between atoms: _416  and  _418
REMARK  178  A    between atoms: _418  and  _419
REMARK  179  A    between atoms: _422  and  _424
REMARK  180  A    between atoms: _424  and  _425
REMARK  181  A    between atoms: _424  and  _427
REMARK  182  A    between atoms: _427  and  _428
REMARK  183  A    between atoms: _431  and  _433
REMARK  184  A    between atoms: _433  and  _434
REMARK  185  A    between atoms: _433  and  _436
REMARK  186  A    between atoms: _436  and  _437
REMARK  187  A    between atoms: _442  and  _444
REMARK  188  A    between atoms: _444  and  _445
REMARK  189  A    between atoms: _444  and  _447
REMARK  190  A    between atoms: _447  and  _448
REMARK  191  A    between atoms: _454  and  _456
REMARK  192  A    between atoms: _456  and  _457
REMARK  193  A    between atoms: _459  and  _461
REMARK  194  A    between atoms: _461  and  _462
REMARK  195  A    between atoms: _461  and  _464
REMARK  196  A    between atoms: _467  and  _469
REMARK  197  A    between atoms: _469  and  _470
REMARK  198  A    between atoms: _469  and  _472
REMARK  199  A    between atoms: _472  and  _473
REMARK  200  A    between atoms: _478  and  _479
REMARK                            x       y       z     vdW  Elec       q    Type
REMARK                         _______ _______ _______ _____ _____    ______ ____
ROOT
ATOM      1  CA  CYS A   4       7.834  36.779  16.889  0.00  0.00    +0.160 C 
ENDROOT
BRANCH   1   2
ATOM      2  N   CYS A   4       6.764  35.902  17.346  0.00  0.00    -0.296 N 
ATOM      3  C   HIS A   3       5.575  36.329  17.763  0.00  0.00    +0.241 C 
ATOM      4  O   HIS A   3       5.274  37.499  17.772  0.00  0.00    -0.273 OA
ATOM      5  H   CYS A   4       6.941  34.877  17.346  0.00  0.00    +0.150 HD
BRANCH   3   6
ATOM      6  CA  HIS A   3       4.539  35.320  18.187  0.00  0.00    +0.155 C 
BRANCH   6   7
ATOM      7  N   HIS A   3       4.758  33.992  17.630  0.00  0.00    -0.297 N 
ATOM      8  H   HIS A   3       4.936  33.200  18.280  0.00  0.00    +0.150 HD
ATOM      9  C   ALA A   2       4.738  33.748  16.280  0.00  0.00    +0.241 C 
ATOM     10  O   ALA A   2       4.653  34.628  15.434  0.00  0.00    -0.273 OA
BRANCH   9  11
ATOM     11  CA  ALA A   2       4.841  32.298  15.806  0.00  0.00    +0.149 C 
ATOM     12  CB  ALA A   2       3.464  31.650  15.817  0.00  0.00    +0.031 C 
BRANCH  11  13
ATOM     13  N   ALA A   2       5.785  31.513  16.597  0.00  0.00    -0.297 N 
ATOM     14  H   ALA A   2       5.462  30.636  17.053  0.00  0.00    +0.150 HD
ATOM     15  C   ALA A   1       7.066  31.903  16.747  0.00  0.00    +0.238 C 
ATOM     16  O   ALA A   1       7.512  32.953  16.257  0.00  0.00    -0.274 OA
BRANCH  15  17
ATOM     17  CA  ALA A   1       7.931  31.048  17.603  0.00  0.00    +0.145 C 
ATOM     18  CB  ALA A   1       8.096  31.687  18.985  0.00  0.00    +0.028 C 
BRANCH  17  19
ATOM     19  N   ALA A   1       9.227  30.870  16.949  0.00  0.00    -0.238 NA
ATOM     20  H   ALA A   1       9.904  31.659  16.949  0.00  0.00    +0.142 HD
ENDBRANCH  17  19
ENDBRANCH  15  17
ENDBRANCH  11  13
ENDBRANCH   9  11
ENDBRANCH   6   7
BRANCH   6  21
ATOM     21  CB  HIS A   3       4.357  35.287  19.717  0.00  0.00    +0.076 C 
BRANCH  21  22
ATOM     22  CG  HIS A   3       5.611  35.280  20.511  0.00  0.00    +0.082 A 
ATOM     23  ND1 HIS A   3       5.979  34.177  21.262  0.00  0.00    -0.227 NA
ATOM     24  CE1 HIS A   3       7.101  34.522  21.879  0.00  0.00    +0.199 A 
ATOM     25  NE2 HIS A   3       7.442  35.788  21.594  0.00  0.00    -0.221 NA
ATOM     26  CD2 HIS A   3       6.483  36.284  20.749  0.00  0.00    +0.115 A 
ENDBRANCH  21  22
ENDBRANCH   6  21
ENDBRANCH   3   6
ENDBRANCH   1   2
BRANCH   1  27
ATOM     27  C   CYS A   4       7.431  37.502  15.630  0.00  0.00    +0.242 C 
ATOM     28  O   CYS A   4       8.101  38.466  15.251  0.00  0.00    -0.273 OA
ATOM     29  N   PHE A   5       6.417  36.987  14.899  0.00  0.00    -0.297 N 
ATOM     30  H   PHE A   5       5.895  36.154  15.238  0.00  0.00    +0.150 HD
BRANCH  29  31
ATOM     31  CA  PHE A   5       6.061  37.618  13.620  0.00  0.00    +0.153 C 
BRANCH  31  32
ATOM     32  C   PHE A   5       4.785  38.470  13.681  0.00  0.00    +0.241 C 
ATOM     33  N   ASP A   6       4.227  38.669  14.874  0.00  0.00    -0.297 N 
ATOM     34  H   ASP A   6       4.692  38.247  15.703  0.00  0.00    +0.150 HD
ATOM     35  O   PHE A   5       4.324  38.920  12.638  0.00  0.00    -0.273 OA
BRANCH  33  36
ATOM     36  CA  ASP A   6       2.997  39.445  15.100  0.00  0.00    +0.160 C 
BRANCH  36  37
ATOM     37  C   ASP A   6       3.114  40.912  14.649  0.00  0.00    +0.241 C 
ATOM     38  N   LYS A   7       4.293  41.516  14.724  0.00  0.00    -0.298 N 
ATOM     39  H   LYS A   7       5.130  40.970  15.012  0.00  0.00    +0.150 HD
ATOM     40  O   ASP A   6       2.124  41.490  14.261  0.00  0.00    -0.273 OA
BRANCH  38  41
ATOM     41  CA  LYS A   7       4.435  42.944  14.407  0.00  0.00    +0.137 C 
BRANCH  41  42
ATOM     42  C   LYS A   7       5.227  43.247  13.137  0.00  0.00    +0.227 C 
ATOM     43  O   LYS A   7       5.527  44.415  12.886  0.00  0.00    -0.286 OA
ENDBRANCH  41  42
BRANCH  41  44
ATOM     44  CB  LYS A   7       5.062  43.695  15.606  0.00  0.00    +0.028 C 
BRANCH  44  45
ATOM     45  CG  LYS A   7       4.360  43.531  16.959  0.00  0.00    -0.000 C 
BRANCH  45  46
ATOM     46  CD  LYS A   7       5.357  43.866  18.099  0.00  0.00    -0.024 C 
BRANCH  46  47
ATOM     47  CE  LYS A   7       5.011  43.343  19.484  0.00  0.00    -0.086 C 
BRANCH  47  48
ATOM     48  NZ  LYS A   7       6.156  43.458  20.438  0.00  0.00    +0.380 N 
ATOM     49  HZ1 LYS A   7       5.870  43.089  21.367  0.00  0.00    -0.089 HD
ATOM     50  HZ2 LYS A   7       6.430  44.457  20.530  0.00  0.00    -0.089 HD
ATOM     51  HZ3 LYS A   7       6.962  42.908  20.078  0.00  0.00    -0.089 HD
ENDBRANCH  47  48
ENDBRANCH  46  47
ENDBRANCH  45  46
ENDBRANCH  44  45
ENDBRANCH  41  44
ENDBRANCH  38  41
ENDBRANCH  36  37
BRANCH  36  52
ATOM     52  CB  ASP A   6       2.623  39.445  16.589  0.00  0.00    +0.143 C 
BRANCH  52  53
ATOM     53  CG  ASP A   6       1.885  38.226  17.106  0.00  0.00    +0.367 C 
ATOM     54  OD2 ASP A   6       1.535  38.209  18.318  0.00  0.00    -0.246 OA
ATOM     55  OD1 ASP A   6       1.729  37.247  16.332  0.00  0.00    -0.246 OA
ENDBRANCH  52  53
ENDBRANCH  36  52
ENDBRANCH  33  36
ENDBRANCH  31  32
BRANCH  31  56
ATOM     56  CB  PHE A   5       6.000  36.561  12.494  0.00  0.00    +0.055 C 
BRANCH  56  57
ATOM     57  CG  PHE A   5       7.290  35.766  12.475  0.00  0.00    -0.020 A 
ATOM     58  CD2 PHE A   5       7.417  34.604  13.228  0.00  0.00    -0.004 A 
ATOM     59  CE2 PHE A   5       8.633  33.932  13.303  0.00  0.00    -0.000 A 
ATOM     60  CZ  PHE A   5       9.750  34.457  12.692  0.00  0.00    -0.000 A 
ATOM     61  CE1 PHE A   5       9.644  35.605  11.938  0.00  0.00    -0.000 A 
ATOM     62  CD1 PHE A   5       8.419  36.268  11.850  0.00  0.00    -0.004 A 
ENDBRANCH  56  57
ENDBRANCH  31  56
ENDBRANCH  29  31
ENDBRANCH   1  27
BRANCH   1  63
ATOM     63  CB  CYS A   4       9.102  35.961  16.648  0.00  0.00    +0.098 C 
BRANCH  63  64
ATOM     64  SG  CYS A   4       9.804  35.216  18.140  0.00  0.00    -0.080 S 
BRANCH  64  65
ATOM     65  SG  HIS A   3      11.260  36.559  18.558  0.00  0.00    -0.080 S 
BRANCH  65  66
ATOM     66  CB  HIS A   3      12.717  35.881  17.719  0.00  0.00    +0.098 C 
BRANCH  66  67
ATOM     67  CA  HIS A   3      14.052  36.450  18.203  0.00  0.00    +0.160 C 
BRANCH  67  70
ATOM     68  C   ALA A   2      13.777  38.858  17.764  0.00  0.00    +0.241 C 
ATOM     69  O   ALA A   2      13.076  39.017  18.764  0.00  0.00    -0.273 OA
ATOM     70  N   HIS A   3      14.337  37.683  17.471  0.00  0.00    -0.296 N 
ATOM     71  H   HIS A   3      15.012  37.642  16.681  0.00  0.00    +0.150 HD
BRANCH  68  72
ATOM     72  CA  ALA A   2      14.055  40.015  16.793  0.00  0.00    +0.149 C 
BRANCH  72  75
ATOM     73  C   ALA A   1      16.031  41.415  17.203  0.00  0.00    +0.238 C 
ATOM     74  O   ALA A   1      15.391  42.240  17.832  0.00  0.00    -0.274 OA
ATOM     75  N   ALA A   2      15.477  40.315  16.677  0.00  0.00    -0.297 N 
ATOM     76  H   ALA A   2      16.087  39.647  16.164  0.00  0.00    +0.150 HD
BRANCH  73  77
ATOM     77  CA  ALA A   1      17.532  41.570  17.058  0.00  0.00    +0.145 C 
BRANCH  77  78
ATOM     78  N   ALA A   1      17.853  42.814  16.397  0.00  0.00    -0.238 NA
ATOM     79  H   ALA A   1      18.506  43.456  16.890  0.00  0.00    +0.142 HD
ENDBRANCH  77  78
BRANCH  77  80
ATOM     80  CB  ALA A   1      18.222  41.544  18.443  0.00  0.00    +0.036 C 
BRANCH  80  81
ATOM     81  CG  ALA A   1      17.941  40.314  19.272  0.00  0.00    +0.087 C 
BRANCH  81  82
ATOM     82  CD  ALA A   1      18.779  40.299  20.524  0.00  0.00    +0.219 C 
ATOM     83  NE2 ALA A   1      18.417  39.449  21.455  0.00  0.00    -0.329 N 
ATOM     84 HE21 ALA A   1      18.970  39.372  22.332  0.00  0.00    +0.145 HD
ATOM     85 HE22 ALA A   1      17.577  38.852  21.316  0.00  0.00    +0.145 HD
ATOM     86  OE1 ALA A   1      19.776  41.026  20.658  0.00  0.00    -0.275 OA
ENDBRANCH  81  82
ENDBRANCH  80  81
ENDBRANCH  77  80
ENDBRANCH  73  77
ENDBRANCH  72  75
BRANCH  72  87
ATOM     87  CB  ALA A   2      13.468  39.721  15.398  0.00  0.00    +0.029 C 
BRANCH  87  88
ATOM     88  CG  ALA A   2      12.013  39.320  15.347  0.00  0.00    +0.002 C 
ATOM     89  CD2 ALA A   2      11.090  40.538  15.610  0.00  0.00    +0.000 C 
ATOM     90  CD1 ALA A   2      11.688  38.545  14.052  0.00  0.00    +0.000 C 
ENDBRANCH  87  88
ENDBRANCH  72  87
ENDBRANCH  68  72
ENDBRANCH  67  70
BRANCH  67  91
ATOM     91  C   HIS A   3      15.163  35.469  17.905  0.00  0.00    +0.242 C 
ATOM     92  N   CYS A   4      15.068  34.323  18.547  0.00  0.00    -0.296 N 
ATOM     93  H   CYS A   4      14.340  34.211  19.281  0.00  0.00    +0.150 HD
ATOM     94  O   HIS A   3      16.038  35.727  17.063  0.00  0.00    -0.273 OA
BRANCH  92  95
ATOM     95  CA  CYS A   4      15.954  33.214  18.255  0.00  0.00    +0.163 C 
BRANCH  95  96
ATOM     96  C   CYS A   4      15.212  32.246  17.355  0.00  0.00    +0.229 C 
ATOM     97  O   CYS A   4      14.043  32.457  17.021  0.00  0.00    -0.286 OA
ENDBRANCH  95  96
ENDBRANCH  92  95
ENDBRANCH  67  91
ENDBRANCH  66  67
ENDBRANCH  65  66
ENDBRANCH  64  65
ENDBRANCH  63  64
ENDBRANCH   1  63
TORSDOF 43
REMARK  Name = ../refined-set-2016/4na9/4na9_pocket.pdb
REMARK  200 active torsions:
REMARK  status: ('A' for Active; 'I' for Inactive)
REMARK    1  A    between atoms: _1  and  _5
REMARK    2  A    between atoms: _5  and  _6
REMARK    3  A    between atoms: _5  and  _8
REMARK    4  A    between atoms: _8  and  _9
REMARK    5  A    between atoms: _12  and  _14
REMARK    6  A    between atoms: _14  and  _15
REMARK    7  A    between atoms: _14  and  _17
REMARK    8  A    between atoms: _20  and  _22
REMARK    9  A    between atoms: _22  and  _23
REMARK   10  A    between atoms: _22  and  _25
REMARK   11  A    between atoms: _25  and  _26
REMARK   12  A    between atoms: _26  and  _27
REMARK   13  A    between atoms: _32  and  _34
REMARK   14  A    between atoms: _34  and  _35
REMARK   15  A    between atoms: _34  and  _37
REMARK   16  A    between atoms: _37  and  _38
REMARK   17  A    between atoms: _41  and  _43
REMARK   18  A    between atoms: _43  and  _44
REMARK   19  A    between atoms: _43  and  _46
REMARK   20  A    between atoms: _46  and  _47
REMARK   21  A    between atoms: _47  and  _82
REMARK   22  A    between atoms: _48  and  _50
REMARK   23  A    between atoms: _50  and  _51
REMARK   24  A    between atoms: _53  and  _55
REMARK   25  A    between atoms: _55  and  _56
REMARK   26  A    between atoms: _59  and  _61
REMARK   27  A    between atoms: _61  and  _62
REMARK   28  A    between atoms: _65  and  _67
REMARK   29  A    between atoms: _67  and  _68
REMARK   30  A    between atoms: _67  and  _70
REMARK   31  A    between atoms: _70  and  _71
REMARK   32  A    between atoms: _76  and  _78
REMARK   33  A    between atoms: _78  and  _79
REMARK   34  A    between atoms: _78  and  _81
REMARK   35  A    between atoms: _81  and  _82
REMARK   36  A    between atoms: _83  and  _85
REMARK   37  A    between atoms: _85  and  _86
REMARK   38  A    between atoms: _85  and  _88
REMARK   39  A    between atoms: _88  and  _89
REMARK   40  A    between atoms: _95  and  _97
REMARK   41  A    between atoms: _97  and  _98
REMARK   42  A    between atoms: _97  and  _100
REMARK   43  A    between atoms: _100  and  _101
REMARK   44  A    between atoms: _104  and  _106
REMARK   45  A    between atoms: _106  and  _107
REMARK   46  A    between atoms: _106  and  _109
REMARK   47  A    between atoms: _109  and  _110
REMARK   48  A    between atoms: _110  and  _111
REMARK   49  A    between atoms: _111  and  _112
REMARK   50  A    between atoms: _112  and  _113
REMARK   51  A    between atoms: _117  and  _119
REMARK   52  A    between atoms: _119  and  _120
REMARK   53  A    between atoms: _119  and  _122
REMARK   54  A    between atoms: _122  and  _123
REMARK   55  A    between atoms: _128  and  _129
REMARK   56  A    between atoms: _132  and  _133
REMARK   57  A    between atoms: _138  and  _140
REMARK   58  A    between atoms: _140  and  _141
REMARK   59  A    between atoms: _143  and  _145
REMARK   60  A    between atoms: _145  and  _146
REMARK   61  A    between atoms: _145  and  _148
REMARK   62  A    between atoms: _148  and  _149
REMARK   63  A    between atoms: _152  and  _154
REMARK   64  A    between atoms: _154  and  _155
REMARK   65  A    between atoms: _154  and  _157
REMARK   66  A    between atoms: _157  and  _158
REMARK   67  A    between atoms: _161  and  _163
REMARK   68  A    between atoms: _163  and  _164
REMARK   69  A    between atoms: _163  and  _166
REMARK   70  A    between atoms: _166  and  _167
REMARK   71  A    between atoms: _170  and  _172
REMARK   72  A    between atoms: _172  and  _173
REMARK   73  A    between atoms: _172  and  _175
REMARK   74  A    between atoms: _178  and  _180
REMARK   75  A    between atoms: _180  and  _181
REMARK   76  A    between atoms: _183  and  _185
REMARK   77  A    between atoms: _185  and  _186
REMARK   78  A    between atoms: _185  and  _188
REMARK   79  A    between atoms: _188  and  _189
REMARK   80  A    between atoms: _189  and  _190
REMARK   81  A    between atoms: _195  and  _197
REMARK   82  A    between atoms: _197  and  _198
REMARK   83  A    between atoms: _197  and  _200
REMARK   84  A    between atoms: _200  and  _201
REMARK   85  A    between atoms: _204  and  _206
REMARK   86  A    between atoms: _206  and  _207
REMARK   87  A    between atoms: _206  and  _209
REMARK   88  A    between atoms: _209  and  _210
REMARK   89  A    between atoms: _213  and  _215
REMARK   90  A    between atoms: _215  and  _216
REMARK   91  A    between atoms: _215  and  _218
REMARK   92  A    between atoms: _218  and  _219
REMARK   93  A    between atoms: _219  and  _220
REMARK   94  A    between atoms: _220  and  _221
REMARK   95  A    between atoms: _230  and  _232
REMARK   96  A    between atoms: _232  and  _233
REMARK   97  A    between atoms: _235  and  _237
REMARK   98  A    between atoms: _237  and  _238
REMARK   99  A    between atoms: _237  and  _240
REMARK  100  A    between atoms: _240  and  _241
REMARK  101  A    between atoms: _244  and  _246
REMARK  102  A    between atoms: _246  and  _247
REMARK  103  A    between atoms: _250  and  _252
REMARK  104  A    between atoms: _252  and  _253
REMARK  105  A    between atoms: _252  and  _255
REMARK  106  A    between atoms: _255  and  _256
REMARK  107  A    between atoms: _261  and  _262
REMARK  108  A    between atoms: _264  and  _266
REMARK  109  A    between atoms: _266  and  _267
REMARK  110  A    between atoms: _266  and  _269
REMARK  111  A    between atoms: _269  and  _270
REMARK  112  A    between atoms: _270  and  _271
REMARK  113  A    between atoms: _271  and  _272
REMARK  114  A    between atoms: _272  and  _273
REMARK  115  A    between atoms: _277  and  _279
REMARK  116  A    between atoms: _279  and  _280
REMARK  117  A    between atoms: _279  and  _282
REMARK  118  A    between atoms: _282  and  _283
REMARK  119  A    between atoms: _286  and  _288
REMARK  120  A    between atoms: _288  and  _289
REMARK  121  A    between atoms: _288  and  _291
REMARK  122  A    between atoms: _291  and  _292
REMARK  123  A    between atoms: _294  and  _296
REMARK  124  A    between atoms: _296  and  _297
REMARK  125  A    between atoms: _296  and  _299
REMARK  126  A    between atoms: _299  and  _300
REMARK  127  A    between atoms: _300  and  _415
REMARK  128  A    between atoms: _301  and  _303
REMARK  129  A    between atoms: _303  and  _304
REMARK  130  A    between atoms: _303  and  _306
REMARK  131  A    between atoms: _306  and  _307
REMARK  132  A    between atoms: _307  and  _308
REMARK  133  A    between atoms: _308  and  _309
REMARK  134  A    between atoms: _309  and  _310
REMARK  135  A    between atoms: _314  and  _316
REMARK  136  A    between atoms: _316  and  _317
REMARK  137  A    between atoms: _319  and  _321
REMARK  138  A    between atoms: _321  and  _322
REMARK  139  A    between atoms: _321  and  _324
REMARK  140  A    between atoms: _324  and  _325
REMARK  141  A    between atoms: _328  and  _330
REMARK  142  A    between atoms: _330  and  _331
REMARK  143  A    between atoms: _330  and  _333
REMARK  144  A    between atoms: _333  and  _334
REMARK  145  A    between atoms: _336  and  _338
REMARK  146  A    between atoms: _338  and  _339
REMARK  147  A    between atoms: _341  and  _343
REMARK  148  A    between atoms: _343  and  _344
REMARK  149  A    between atoms: _346  and  _348
REMARK  150  A    between atoms: _348  and  _349
REMARK  151  A    between atoms: _348  and  _351
REMARK  152  A    between atoms: _351  and  _352
REMARK  153  A    between atoms: _355  and  _357
REMARK  154  A    between atoms: _357  and  _358
REMARK  155  A    between atoms: _357  and  _360
REMARK  156  A    between atoms: _363  and  _365
REMARK  157  A    between atoms: _365  and  _366
REMARK  158  A    between atoms: _365  and  _368
REMARK  159  A    between atoms: _368  and  _369
REMARK  160  A    between atoms: _371  and  _373
REMARK  161  A    between atoms: _373  and  _374
REMARK  162  A    between atoms: _373  and  _376
REMARK  163  A    between atoms: _376  and  _377
REMARK  164  A    between atoms: _387  and  _389
REMARK  165  A    between atoms: _389  and  _390
REMARK  166  A    between atoms: _392  and  _394
REMARK  167  A    between atoms: _394  and  _395
REMARK  168  A    between atoms: _394  and  _397
REMARK  169  A    between atoms: _397  and  _398
REMARK  170  A    between atoms: _398  and  _399
REMARK  171  A    between atoms: _404  and  _406
REMARK  172  A    between atoms: _406  and  _407
REMARK  173  A    between atoms: _409  and  _411
REMARK  174  A    between atoms: _411  and  _412
REMARK  175  A    between atoms: _411  and  _414
REMARK  176  A    between atoms: _414  and  _415
REMARK  177  A    between atoms: _416  and  _418
REMARK  178  A    between atoms: _418  and  _419
REMARK  179  A    between atoms: _422  and  _424
REMARK  180  A    between atoms: _424  and  _425
REMARK  181  A    between atoms: _424  and  _427
REMARK  182  A    between atoms: _427  and  _428
REMARK  183  A    between atoms: _431  and  _433
REMARK  184  A    between atoms: _433  and  _434
REMARK  185  A    between atoms: _433  and  _436
REMARK  186  A    between atoms: _436  and  _437
REMARK  187  A    between atoms: _442  and  _444
REMARK  188  A    between atoms: _444  and  _445
REMARK  189  A    between atoms: _444  and  _447
REMARK  190  A    between atoms: _447  and  _448
REMARK  191  A    between atoms: _454  and  _456
REMARK  192  A    between atoms: _456  and  _457
REMARK  193  A    between atoms: _459  and  _461
REMARK  194  A    between atoms: _461  and  _462
REMARK  195  A    between atoms: _461  and  _464
REMARK  196  A    between atoms: _467  and  _469
REMARK  197  A    between atoms: _469  and  _470
REMARK  198  A    between atoms: _469  and  _472
REMARK  199  A    between atoms: _472  and  _473
REMARK  200  A    between atoms: _478  and  _479
REMARK                            x       y       z     vdW  Elec       q    Type
REMARK                         _______ _______ _______ _____ _____    ______ ____
ROOT
ATOM      1  CG  TYR A   1      -0.162  31.706  16.224  0.00  0.00    -0.020 A 
ATOM      2  CD2 TYR A   1       0.198  31.729  17.576  0.00  0.00    -0.001 A 
ATOM      3  CE2 TYR A   1       0.659  32.902  18.189  0.00  0.00    +0.036 A 
ATOM      4  CZ  TYR A   1       0.771  34.062  17.447  0.00  0.00    +0.134 A 
ATOM      5  CE1 TYR A   1       0.404  34.064  16.106  0.00  0.00    +0.036 A 
ATOM      6  CD1 TYR A   1      -0.061  32.893  15.507  0.00  0.00    -0.001 A 
ENDROOT
BRANCH   4   7
ATOM      7  OH  TYR A   1       1.230  35.227  18.042  0.00  0.00    -0.506 OA
ATOM      8  HH  TYR A   1       2.043  35.538  17.571  0.00  0.00    +0.292 HD
ENDBRANCH   4   7
BRANCH   1   9
ATOM      9  CB  TYR A   1      -0.791  30.465  15.600  0.00  0.00    +0.051 C 
BRANCH   9  10
ATOM     10  CA  TYR A   1      -2.243  30.259  16.084  0.00  0.00    +0.137 C 
BRANCH  10  11
ATOM     11  N   TYR A   1      -2.907  29.166  15.376  0.00  0.00    -0.239 NA
ATOM     12  H   TYR A   1      -2.481  28.797  14.502  0.00  0.00    +0.142 HD
ENDBRANCH  10  11
BRANCH  10  13
ATOM     13  C   TYR A   1      -3.073  31.547  15.928  0.00  0.00    +0.224 C 
ATOM     14  O   TYR A   1      -3.425  31.924  14.818  0.00  0.00    -0.287 OA
ENDBRANCH  10  13
ENDBRANCH   9  10
ENDBRANCH   1   9
TORSDOF 5
REMARK  Name = ../refined-set-2016/4na9/4na9_pocket.pdb
REMARK  200 active torsions:
REMARK  status: ('A' for Active; 'I' for Inactive)
REMARK    1  A    between atoms: _1  and  _5
REMARK    2  A    between atoms: _5  and  _6
REMARK    3  A    between atoms: _5  and  _8
REMARK    4  A    between atoms: _8  and  _9
REMARK    5  A    between atoms: _12  and  _14
REMARK    6  A    between atoms: _14  and  _15
REMARK    7  A    between atoms: _14  and  _17
REMARK    8  A    between atoms: _20  and  _22
REMARK    9  A    between atoms: _22  and  _23
REMARK   10  A    between atoms: _22  and  _25
REMARK   11  A    between atoms: _25  and  _26
REMARK   12  A    between atoms: _26  and  _27
REMARK   13  A    between atoms: _32  and  _34
REMARK   14  A    between atoms: _34  and  _35
REMARK   15  A    between atoms: _34  and  _37
REMARK   16  A    between atoms: _37  and  _38
REMARK   17  A    between atoms: _41  and  _43
REMARK   18  A    between atoms: _43  and  _44
REMARK   19  A    between atoms: _43  and  _46
REMARK   20  A    between atoms: _46  and  _47
REMARK   21  A    between atoms: _47  and  _82
REMARK   22  A    between atoms: _48  and  _50
REMARK   23  A    between atoms: _50  and  _51
REMARK   24  A    between atoms: _53  and  _55
REMARK   25  A    between atoms: _55  and  _56
REMARK   26  A    between atoms: _59  and  _61
REMARK   27  A    between atoms: _61  and  _62
REMARK   28  A    between atoms: _65  and  _67
REMARK   29  A    between atoms: _67  and  _68
REMARK   30  A    between atoms: _67  and  _70
REMARK   31  A    between atoms: _70  and  _71
REMARK   32  A    between atoms: _76  and  _78
REMARK   33  A    between atoms: _78  and  _79
REMARK   34  A    between atoms: _78  and  _81
REMARK   35  A    between atoms: _81  and  _82
REMARK   36  A    between atoms: _83  and  _85
REMARK   37  A    between atoms: _85  and  _86
REMARK   38  A    between atoms: _85  and  _88
REMARK   39  A    between atoms: _88  and  _89
REMARK   40  A    between atoms: _95  and  _97
REMARK   41  A    between atoms: _97  and  _98
REMARK   42  A    between atoms: _97  and  _100
REMARK   43  A    between atoms: _100  and  _101
REMARK   44  A    between atoms: _104  and  _106
REMARK   45  A    between atoms: _106  and  _107
REMARK   46  A    between atoms: _106  and  _109
REMARK   47  A    between atoms: _109  and  _110
REMARK   48  A    between atoms: _110  and  _111
REMARK   49  A    between atoms: _111  and  _112
REMARK   50  A    between atoms: _112  and  _113
REMARK   51  A    between atoms: _117  and  _119
REMARK   52  A    between atoms: _119  and  _120
REMARK   53  A    between atoms: _119  and  _122
REMARK   54  A    between atoms: _122  and  _123
REMARK   55  A    between atoms: _128  and  _129
REMARK   56  A    between atoms: _132  and  _133
REMARK   57  A    between atoms: _138  and  _140
REMARK   58  A    between atoms: _140  and  _141
REMARK   59  A    between atoms: _143  and  _145
REMARK   60  A    between atoms: _145  and  _146
REMARK   61  A    between atoms: _145  and  _148
REMARK   62  A    between atoms: _148  and  _149
REMARK   63  A    between atoms: _152  and  _154
REMARK   64  A    between atoms: _154  and  _155
REMARK   65  A    between atoms: _154  and  _157
REMARK   66  A    between atoms: _157  and  _158
REMARK   67  A    between atoms: _161  and  _163
REMARK   68  A    between atoms: _163  and  _164
REMARK   69  A    between atoms: _163  and  _166
REMARK   70  A    between atoms: _166  and  _167
REMARK   71  A    between atoms: _170  and  _172
REMARK   72  A    between atoms: _172  and  _173
REMARK   73  A    between atoms: _172  and  _175
REMARK   74  A    between atoms: _178  and  _180
REMARK   75  A    between atoms: _180  and  _181
REMARK   76  A    between atoms: _183  and  _185
REMARK   77  A    between atoms: _185  and  _186
REMARK   78  A    between atoms: _185  and  _188
REMARK   79  A    between atoms: _188  and  _189
REMARK   80  A    between atoms: _189  and  _190
REMARK   81  A    between atoms: _195  and  _197
REMARK   82  A    between atoms: _197  and  _198
REMARK   83  A    between atoms: _197  and  _200
REMARK   84  A    between atoms: _200  and  _201
REMARK   85  A    between atoms: _204  and  _206
REMARK   86  A    between atoms: _206  and  _207
REMARK   87  A    between atoms: _206  and  _209
REMARK   88  A    between atoms: _209  and  _210
REMARK   89  A    between atoms: _213  and  _215
REMARK   90  A    between atoms: _215  and  _216
REMARK   91  A    between atoms: _215  and  _218
REMARK   92  A    between atoms: _218  and  _219
REMARK   93  A    between atoms: _219  and  _220
REMARK   94  A    between atoms: _220  and  _221
REMARK   95  A    between atoms: _230  and  _232
REMARK   96  A    between atoms: _232  and  _233
REMARK   97  A    between atoms: _235  and  _237
REMARK   98  A    between atoms: _237  and  _238
REMARK   99  A    between atoms: _237  and  _240
REMARK  100  A    between atoms: _240  and  _241
REMARK  101  A    between atoms: _244  and  _246
REMARK  102  A    between atoms: _246  and  _247
REMARK  103  A    between atoms: _250  and  _252
REMARK  104  A    between atoms: _252  and  _253
REMARK  105  A    between atoms: _252  and  _255
REMARK  106  A    between atoms: _255  and  _256
REMARK  107  A    between atoms: _261  and  _262
REMARK  108  A    between atoms: _264  and  _266
REMARK  109  A    between atoms: _266  and  _267
REMARK  110  A    between atoms: _266  and  _269
REMARK  111  A    between atoms: _269  and  _270
REMARK  112  A    between atoms: _270  and  _271
REMARK  113  A    between atoms: _271  and  _272
REMARK  114  A    between atoms: _272  and  _273
REMARK  115  A    between atoms: _277  and  _279
REMARK  116  A    between atoms: _279  and  _280
REMARK  117  A    between atoms: _279  and  _282
REMARK  118  A    between atoms: _282  and  _283
REMARK  119  A    between atoms: _286  and  _288
REMARK  120  A    between atoms: _288  and  _289
REMARK  121  A    between atoms: _288  and  _291
REMARK  122  A    between atoms: _291  and  _292
REMARK  123  A    between atoms: _294  and  _296
REMARK  124  A    between atoms: _296  and  _297
REMARK  125  A    between atoms: _296  and  _299
REMARK  126  A    between atoms: _299  and  _300
REMARK  127  A    between atoms: _300  and  _415
REMARK  128  A    between atoms: _301  and  _303
REMARK  129  A    between atoms: _303  and  _304
REMARK  130  A    between atoms: _303  and  _306
REMARK  131  A    between atoms: _306  and  _307
REMARK  132  A    between atoms: _307  and  _308
REMARK  133  A    between atoms: _308  and  _309
REMARK  134  A    between atoms: _309  and  _310
REMARK  135  A    between atoms: _314  and  _316
REMARK  136  A    between atoms: _316  and  _317
REMARK  137  A    between atoms: _319  and  _321
REMARK  138  A    between atoms: _321  and  _322
REMARK  139  A    between atoms: _321  and  _324
REMARK  140  A    between atoms: _324  and  _325
REMARK  141  A    between atoms: _328  and  _330
REMARK  142  A    between atoms: _330  and  _331
REMARK  143  A    between atoms: _330  and  _333
REMARK  144  A    between atoms: _333  and  _334
REMARK  145  A    between atoms: _336  and  _338
REMARK  146  A    between atoms: _338  and  _339
REMARK  147  A    between atoms: _341  and  _343
REMARK  148  A    between atoms: _343  and  _344
REMARK  149  A    between atoms: _346  and  _348
REMARK  150  A    between atoms: _348  and  _349
REMARK  151  A    between atoms: _348  and  _351
REMARK  152  A    between atoms: _351  and  _352
REMARK  153  A    between atoms: _355  and  _357
REMARK  154  A    between atoms: _357  and  _358
REMARK  155  A    between atoms: _357  and  _360
REMARK  156  A    between atoms: _363  and  _365
REMARK  157  A    between atoms: _365  and  _366
REMARK  158  A    between atoms: _365  and  _368
REMARK  159  A    between atoms: _368  and  _369
REMARK  160  A    between atoms: _371  and  _373
REMARK  161  A    between atoms: _373  and  _374
REMARK  162  A    between atoms: _373  and  _376
REMARK  163  A    between atoms: _376  and  _377
REMARK  164  A    between atoms: _387  and  _389
REMARK  165  A    between atoms: _389  and  _390
REMARK  166  A    between atoms: _392  and  _394
REMARK  167  A    between atoms: _394  and  _395
REMARK  168  A    between atoms: _394  and  _397
REMARK  169  A    between atoms: _397  and  _398
REMARK  170  A    between atoms: _398  and  _399
REMARK  171  A    between atoms: _404  and  _406
REMARK  172  A    between atoms: _406  and  _407
REMARK  173  A    between atoms: _409  and  _411
REMARK  174  A    between atoms: _411  and  _412
REMARK  175  A    between atoms: _411  and  _414
REMARK  176  A    between atoms: _414  and  _415
REMARK  177  A    between atoms: _416  and  _418
REMARK  178  A    between atoms: _418  and  _419
REMARK  179  A    between atoms: _422  and  _424
REMARK  180  A    between atoms: _424  and  _425
REMARK  181  A    between atoms: _424  and  _427
REMARK  182  A    between atoms: _427  and  _428
REMARK  183  A    between atoms: _431  and  _433
REMARK  184  A    between atoms: _433  and  _434
REMARK  185  A    between atoms: _433  and  _436
REMARK  186  A    between atoms: _436  and  _437
REMARK  187  A    between atoms: _442  and  _444
REMARK  188  A    between atoms: _444  and  _445
REMARK  189  A    between atoms: _444  and  _447
REMARK  190  A    between atoms: _447  and  _448
REMARK  191  A    between atoms: _454  and  _456
REMARK  192  A    between atoms: _456  and  _457
REMARK  193  A    between atoms: _459  and  _461
REMARK  194  A    between atoms: _461  and  _462
REMARK  195  A    between atoms: _461  and  _464
REMARK  196  A    between atoms: _467  and  _469
REMARK  197  A    between atoms: _469  and  _470
REMARK  198  A    between atoms: _469  and  _472
REMARK  199  A    between atoms: _472  and  _473
REMARK  200  A    between atoms: _478  and  _479
REMARK                            x       y       z     vdW  Elec       q    Type
REMARK                         _______ _______ _______ _____ _____    ______ ____
ROOT
ATOM      1  CA  THR A   3      -1.913  34.881  22.125  0.00  0.00    +0.176 C 
ENDROOT
BRANCH   1   4
ATOM      2  C   GLY A   2      -1.696  37.279  21.508  0.00  0.00    +0.243 C 
ATOM      3  O   GLY A   2      -1.857  37.665  22.662  0.00  0.00    -0.273 OA
ATOM      4  N   THR A   3      -1.759  35.973  21.165  0.00  0.00    -0.295 N 
ATOM      5  H   THR A   3      -1.694  35.730  20.156  0.00  0.00    +0.150 HD
BRANCH   2   6
ATOM      6  CA  GLY A   2      -1.468  38.293  20.406  0.00  0.00    +0.176 C 
BRANCH   6   8
ATOM      7  C   PRO A   1      -2.289  37.387  18.297  0.00  0.00    +0.239 C 
ATOM      8  N   GLY A   2      -1.278  37.696  19.090  0.00  0.00    -0.296 N 
ATOM      9  H   GLY A   2      -0.309  37.506  18.762  0.00  0.00    +0.150 HD
ATOM     10  O   PRO A   1      -3.473  37.528  18.625  0.00  0.00    -0.274 OA
BRANCH   7  12
ATOM     11  N   PRO A   1      -2.841  35.652  16.582  0.00  0.00    -0.210 NA
ATOM     12  CA  PRO A   1      -1.910  36.725  16.975  0.00  0.00    +0.149 C 
ATOM     13  CB  PRO A   1      -1.949  37.694  15.783  0.00  0.00    +0.028 C 
ATOM     14  CG  PRO A   1      -2.325  36.839  14.624  0.00  0.00    +0.021 C 
ATOM     15  CD  PRO A   1      -3.310  35.835  15.192  0.00  0.00    +0.089 C 
ENDBRANCH   7  12
ENDBRANCH   6   8
ENDBRANCH   2   6
ENDBRANCH   1   4
BRANCH   1  16
ATOM     16  C   THR A   3      -0.617  34.045  22.145  0.00  0.00    +0.243 C 
ATOM     17  N   THR A   4      -0.587  33.068  23.083  0.00  0.00    -0.296 N 
ATOM     18  H   THR A   4      -1.459  32.920  23.630  0.00  0.00    +0.150 HD
ATOM     19  O   THR A   3       0.314  34.286  21.331  0.00  0.00    -0.273 OA
BRANCH  17  20
ATOM     20  CA  THR A   4       0.548  32.198  23.407  0.00  0.00    +0.164 C 
BRANCH  20  21
ATOM     21  CB  THR A   4       0.668  32.117  24.966  0.00  0.00    +0.136 C 
ATOM     22  CG2 THR A   4       1.099  33.436  25.623  0.00  0.00    +0.034 C 
BRANCH  21  23
ATOM     23  OG1 THR A   4      -0.589  31.688  25.517  0.00  0.00    -0.382 OA
ATOM     24  HG1 THR A   4      -0.515  31.636  26.503  0.00  0.00    +0.210 HD
ENDBRANCH  21  23
ENDBRANCH  20  21
BRANCH  20  25
ATOM     25  C   THR A   4       0.442  30.737  22.910  0.00  0.00    +0.229 C 
ATOM     26  O   THR A   4       1.410  29.989  23.047  0.00  0.00    -0.286 OA
ENDBRANCH  20  25
ENDBRANCH  17  20
ENDBRANCH   1  16
BRANCH   1  27
ATOM     27  CB  THR A   3      -3.168  34.047  21.887  0.00  0.00    +0.137 C 
ATOM     28  CG2 THR A   3      -4.422  34.885  21.689  0.00  0.00    +0.034 C 
BRANCH  27  29
ATOM     29  OG1 THR A   3      -2.941  33.222  20.764  0.00  0.00    -0.382 OA
ATOM     30  HG1 THR A   3      -2.752  33.787  19.974  0.00  0.00    +0.210 HD
ENDBRANCH  27  29
ENDBRANCH   1  27
TORSDOF 11
REMARK  Name = ../refined-set-2016/4na9/4na9_pocket.pdb
REMARK  200 active torsions:
REMARK  status: ('A' for Active; 'I' for Inactive)
REMARK    1  A    between atoms: _1  and  _5
REMARK    2  A    between atoms: _5  and  _6
REMARK    3  A    between atoms: _5  and  _8
REMARK    4  A    between atoms: _8  and  _9
REMARK    5  A    between atoms: _12  and  _14
REMARK    6  A    between atoms: _14  and  _15
REMARK    7  A    between atoms: _14  and  _17
REMARK    8  A    between atoms: _20  and  _22
REMARK    9  A    between atoms: _22  and  _23
REMARK   10  A    between atoms: _22  and  _25
REMARK   11  A    between atoms: _25  and  _26
REMARK   12  A    between atoms: _26  and  _27
REMARK   13  A    between atoms: _32  and  _34
REMARK   14  A    between atoms: _34  and  _35
REMARK   15  A    between atoms: _34  and  _37
REMARK   16  A    between atoms: _37  and  _38
REMARK   17  A    between atoms: _41  and  _43
REMARK   18  A    between atoms: _43  and  _44
REMARK   19  A    between atoms: _43  and  _46
REMARK   20  A    between atoms: _46  and  _47
REMARK   21  A    between atoms: _47  and  _82
REMARK   22  A    between atoms: _48  and  _50
REMARK   23  A    between atoms: _50  and  _51
REMARK   24  A    between atoms: _53  and  _55
REMARK   25  A    between atoms: _55  and  _56
REMARK   26  A    between atoms: _59  and  _61
REMARK   27  A    between atoms: _61  and  _62
REMARK   28  A    between atoms: _65  and  _67
REMARK   29  A    between atoms: _67  and  _68
REMARK   30  A    between atoms: _67  and  _70
REMARK   31  A    between atoms: _70  and  _71
REMARK   32  A    between atoms: _76  and  _78
REMARK   33  A    between atoms: _78  and  _79
REMARK   34  A    between atoms: _78  and  _81
REMARK   35  A    between atoms: _81  and  _82
REMARK   36  A    between atoms: _83  and  _85
REMARK   37  A    between atoms: _85  and  _86
REMARK   38  A    between atoms: _85  and  _88
REMARK   39  A    between atoms: _88  and  _89
REMARK   40  A    between atoms: _95  and  _97
REMARK   41  A    between atoms: _97  and  _98
REMARK   42  A    between atoms: _97  and  _100
REMARK   43  A    between atoms: _100  and  _101
REMARK   44  A    between atoms: _104  and  _106
REMARK   45  A    between atoms: _106  and  _107
REMARK   46  A    between atoms: _106  and  _109
REMARK   47  A    between atoms: _109  and  _110
REMARK   48  A    between atoms: _110  and  _111
REMARK   49  A    between atoms: _111  and  _112
REMARK   50  A    between atoms: _112  and  _113
REMARK   51  A    between atoms: _117  and  _119
REMARK   52  A    between atoms: _119  and  _120
REMARK   53  A    between atoms: _119  and  _122
REMARK   54  A    between atoms: _122  and  _123
REMARK   55  A    between atoms: _128  and  _129
REMARK   56  A    between atoms: _132  and  _133
REMARK   57  A    between atoms: _138  and  _140
REMARK   58  A    between atoms: _140  and  _141
REMARK   59  A    between atoms: _143  and  _145
REMARK   60  A    between atoms: _145  and  _146
REMARK   61  A    between atoms: _145  and  _148
REMARK   62  A    between atoms: _148  and  _149
REMARK   63  A    between atoms: _152  and  _154
REMARK   64  A    between atoms: _154  and  _155
REMARK   65  A    between atoms: _154  and  _157
REMARK   66  A    between atoms: _157  and  _158
REMARK   67  A    between atoms: _161  and  _163
REMARK   68  A    between atoms: _163  and  _164
REMARK   69  A    between atoms: _163  and  _166
REMARK   70  A    between atoms: _166  and  _167
REMARK   71  A    between atoms: _170  and  _172
REMARK   72  A    between atoms: _172  and  _173
REMARK   73  A    between atoms: _172  and  _175
REMARK   74  A    between atoms: _178  and  _180
REMARK   75  A    between atoms: _180  and  _181
REMARK   76  A    between atoms: _183  and  _185
REMARK   77  A    between atoms: _185  and  _186
REMARK   78  A    between atoms: _185  and  _188
REMARK   79  A    between atoms: _188  and  _189
REMARK   80  A    between atoms: _189  and  _190
REMARK   81  A    between atoms: _195  and  _197
REMARK   82  A    between atoms: _197  and  _198
REMARK   83  A    between atoms: _197  and  _200
REMARK   84  A    between atoms: _200  and  _201
REMARK   85  A    between atoms: _204  and  _206
REMARK   86  A    between atoms: _206  and  _207
REMARK   87  A    between atoms: _206  and  _209
REMARK   88  A    between atoms: _209  and  _210
REMARK   89  A    between atoms: _213  and  _215
REMARK   90  A    between atoms: _215  and  _216
REMARK   91  A    between atoms: _215  and  _218
REMARK   92  A    between atoms: _218  and  _219
REMARK   93  A    between atoms: _219  and  _220
REMARK   94  A    between atoms: _220  and  _221
REMARK   95  A    between atoms: _230  and  _232
REMARK   96  A    between atoms: _232  and  _233
REMARK   97  A    between atoms: _235  and  _237
REMARK   98  A    between atoms: _237  and  _238
REMARK   99  A    between atoms: _237  and  _240
REMARK  100  A    between atoms: _240  and  _241
REMARK  101  A    between atoms: _244  and  _246
REMARK  102  A    between atoms: _246  and  _247
REMARK  103  A    between atoms: _250  and  _252
REMARK  104  A    between atoms: _252  and  _253
REMARK  105  A    between atoms: _252  and  _255
REMARK  106  A    between atoms: _255  and  _256
REMARK  107  A    between atoms: _261  and  _262
REMARK  108  A    between atoms: _264  and  _266
REMARK  109  A    between atoms: _266  and  _267
REMARK  110  A    between atoms: _266  and  _269
REMARK  111  A    between atoms: _269  and  _270
REMARK  112  A    between atoms: _270  and  _271
REMARK  113  A    between atoms: _271  and  _272
REMARK  114  A    between atoms: _272  and  _273
REMARK  115  A    between atoms: _277  and  _279
REMARK  116  A    between atoms: _279  and  _280
REMARK  117  A    between atoms: _279  and  _282
REMARK  118  A    between atoms: _282  and  _283
REMARK  119  A    between atoms: _286  and  _288
REMARK  120  A    between atoms: _288  and  _289
REMARK  121  A    between atoms: _288  and  _291
REMARK  122  A    between atoms: _291  and  _292
REMARK  123  A    between atoms: _294  and  _296
REMARK  124  A    between atoms: _296  and  _297
REMARK  125  A    between atoms: _296  and  _299
REMARK  126  A    between atoms: _299  and  _300
REMARK  127  A    between atoms: _300  and  _415
REMARK  128  A    between atoms: _301  and  _303
REMARK  129  A    between atoms: _303  and  _304
REMARK  130  A    between atoms: _303  and  _306
REMARK  131  A    between atoms: _306  and  _307
REMARK  132  A    between atoms: _307  and  _308
REMARK  133  A    between atoms: _308  and  _309
REMARK  134  A    between atoms: _309  and  _310
REMARK  135  A    between atoms: _314  and  _316
REMARK  136  A    between atoms: _316  and  _317
REMARK  137  A    between atoms: _319  and  _321
REMARK  138  A    between atoms: _321  and  _322
REMARK  139  A    between atoms: _321  and  _324
REMARK  140  A    between atoms: _324  and  _325
REMARK  141  A    between atoms: _328  and  _330
REMARK  142  A    between atoms: _330  and  _331
REMARK  143  A    between atoms: _330  and  _333
REMARK  144  A    between atoms: _333  and  _334
REMARK  145  A    between atoms: _336  and  _338
REMARK  146  A    between atoms: _338  and  _339
REMARK  147  A    between atoms: _341  and  _343
REMARK  148  A    between atoms: _343  and  _344
REMARK  149  A    between atoms: _346  and  _348
REMARK  150  A    between atoms: _348  and  _349
REMARK  151  A    between atoms: _348  and  _351
REMARK  152  A    between atoms: _351  and  _352
REMARK  153  A    between atoms: _355  and  _357
REMARK  154  A    between atoms: _357  and  _358
REMARK  155  A    between atoms: _357  and  _360
REMARK  156  A    between atoms: _363  and  _365
REMARK  157  A    between atoms: _365  and  _366
REMARK  158  A    between atoms: _365  and  _368
REMARK  159  A    between atoms: _368  and  _369
REMARK  160  A    between atoms: _371  and  _373
REMARK  161  A    between atoms: _373  and  _374
REMARK  162  A    between atoms: _373  and  _376
REMARK  163  A    between atoms: _376  and  _377
REMARK  164  A    between atoms: _387  and  _389
REMARK  165  A    between atoms: _389  and  _390
REMARK  166  A    between atoms: _392  and  _394
REMARK  167  A    between atoms: _394  and  _395
REMARK  168  A    between atoms: _394  and  _397
REMARK  169  A    between atoms: _397  and  _398
REMARK  170  A    between atoms: _398  and  _399
REMARK  171  A    between atoms: _404  and  _406
REMARK  172  A    between atoms: _406  and  _407
REMARK  173  A    between atoms: _409  and  _411
REMARK  174  A    between atoms: _411  and  _412
REMARK  175  A    between atoms: _411  and  _414
REMARK  176  A    between atoms: _414  and  _415
REMARK  177  A    between atoms: _416  and  _418
REMARK  178  A    between atoms: _418  and  _419
REMARK  179  A    between atoms: _422  and  _424
REMARK  180  A    between atoms: _424  and  _425
REMARK  181  A    between atoms: _424  and  _427
REMARK  182  A    between atoms: _427  and  _428
REMARK  183  A    between atoms: _431  and  _433
REMARK  184  A    between atoms: _433  and  _434
REMARK  185  A    between atoms: _433  and  _436
REMARK  186  A    between atoms: _436  and  _437
REMARK  187  A    between atoms: _442  and  _444
REMARK  188  A    between atoms: _444  and  _445
REMARK  189  A    between atoms: _444  and  _447
REMARK  190  A    between atoms: _447  and  _448
REMARK  191  A    between atoms: _454  and  _456
REMARK  192  A    between atoms: _456  and  _457
REMARK  193  A    between atoms: _459  and  _461
REMARK  194  A    between atoms: _461  and  _462
REMARK  195  A    between atoms: _461  and  _464
REMARK  196  A    between atoms: _467  and  _469
REMARK  197  A    between atoms: _469  and  _470
REMARK  198  A    between atoms: _469  and  _472
REMARK  199  A    between atoms: _472  and  _473
REMARK  200  A    between atoms: _478  and  _479
REMARK                            x       y       z     vdW  Elec       q    Type
REMARK                         _______ _______ _______ _____ _____    ______ ____
ROOT
ATOM      1  CA  ASP A   1       3.432  29.200  19.319  0.00  0.00    +0.144 C 
ENDROOT
BRANCH   1   2
ATOM      2  N   ASP A   1       2.364  28.227  19.533  0.00  0.00    -0.239 NA
ATOM      3  H   ASP A   1       2.315  27.737  20.449  0.00  0.00    +0.142 HD
ENDBRANCH   1   2
BRANCH   1   4
ATOM      4  C   ASP A   1       4.644  28.602  18.600  0.00  0.00    +0.225 C 
ATOM      5  O   ASP A   1       5.721  28.435  19.186  0.00  0.00    -0.287 OA
ENDBRANCH   1   4
BRANCH   1   6
ATOM      6  CB  ASP A   1       3.806  29.867  20.647  0.00  0.00    +0.139 C 
BRANCH   6   7
ATOM      7  CG  ASP A   1       4.541  31.177  20.494  0.00  0.00    +0.367 C 
ATOM      8  OD2 ASP A   1       5.019  31.708  21.520  0.00  0.00    -0.246 OA
ATOM      9  OD1 ASP A   1       4.678  31.657  19.340  0.00  0.00    -0.246 OA
ENDBRANCH   6   7
ENDBRANCH   1   6
TORSDOF 4
REMARK  Name = ../refined-set-2016/4na9/4na9_pocket.pdb
REMARK  200 active torsions:
REMARK  status: ('A' for Active; 'I' for Inactive)
REMARK    1  A    between atoms: _1  and  _5
REMARK    2  A    between atoms: _5  and  _6
REMARK    3  A    between atoms: _5  and  _8
REMARK    4  A    between atoms: _8  and  _9
REMARK    5  A    between atoms: _12  and  _14
REMARK    6  A    between atoms: _14  and  _15
REMARK    7  A    between atoms: _14  and  _17
REMARK    8  A    between atoms: _20  and  _22
REMARK    9  A    between atoms: _22  and  _23
REMARK   10  A    between atoms: _22  and  _25
REMARK   11  A    between atoms: _25  and  _26
REMARK   12  A    between atoms: _26  and  _27
REMARK   13  A    between atoms: _32  and  _34
REMARK   14  A    between atoms: _34  and  _35
REMARK   15  A    between atoms: _34  and  _37
REMARK   16  A    between atoms: _37  and  _38
REMARK   17  A    between atoms: _41  and  _43
REMARK   18  A    between atoms: _43  and  _44
REMARK   19  A    between atoms: _43  and  _46
REMARK   20  A    between atoms: _46  and  _47
REMARK   21  A    between atoms: _47  and  _82
REMARK   22  A    between atoms: _48  and  _50
REMARK   23  A    between atoms: _50  and  _51
REMARK   24  A    between atoms: _53  and  _55
REMARK   25  A    between atoms: _55  and  _56
REMARK   26  A    between atoms: _59  and  _61
REMARK   27  A    between atoms: _61  and  _62
REMARK   28  A    between atoms: _65  and  _67
REMARK   29  A    between atoms: _67  and  _68
REMARK   30  A    between atoms: _67  and  _70
REMARK   31  A    between atoms: _70  and  _71
REMARK   32  A    between atoms: _76  and  _78
REMARK   33  A    between atoms: _78  and  _79
REMARK   34  A    between atoms: _78  and  _81
REMARK   35  A    between atoms: _81  and  _82
REMARK   36  A    between atoms: _83  and  _85
REMARK   37  A    between atoms: _85  and  _86
REMARK   38  A    between atoms: _85  and  _88
REMARK   39  A    between atoms: _88  and  _89
REMARK   40  A    between atoms: _95  and  _97
REMARK   41  A    between atoms: _97  and  _98
REMARK   42  A    between atoms: _97  and  _100
REMARK   43  A    between atoms: _100  and  _101
REMARK   44  A    between atoms: _104  and  _106
REMARK   45  A    between atoms: _106  and  _107
REMARK   46  A    between atoms: _106  and  _109
REMARK   47  A    between atoms: _109  and  _110
REMARK   48  A    between atoms: _110  and  _111
REMARK   49  A    between atoms: _111  and  _112
REMARK   50  A    between atoms: _112  and  _113
REMARK   51  A    between atoms: _117  and  _119
REMARK   52  A    between atoms: _119  and  _120
REMARK   53  A    between atoms: _119  and  _122
REMARK   54  A    between atoms: _122  and  _123
REMARK   55  A    between atoms: _128  and  _129
REMARK   56  A    between atoms: _132  and  _133
REMARK   57  A    between atoms: _138  and  _140
REMARK   58  A    between atoms: _140  and  _141
REMARK   59  A    between atoms: _143  and  _145
REMARK   60  A    between atoms: _145  and  _146
REMARK   61  A    between atoms: _145  and  _148
REMARK   62  A    between atoms: _148  and  _149
REMARK   63  A    between atoms: _152  and  _154
REMARK   64  A    between atoms: _154  and  _155
REMARK   65  A    between atoms: _154  and  _157
REMARK   66  A    between atoms: _157  and  _158
REMARK   67  A    between atoms: _161  and  _163
REMARK   68  A    between atoms: _163  and  _164
REMARK   69  A    between atoms: _163  and  _166
REMARK   70  A    between atoms: _166  and  _167
REMARK   71  A    between atoms: _170  and  _172
REMARK   72  A    between atoms: _172  and  _173
REMARK   73  A    between atoms: _172  and  _175
REMARK   74  A    between atoms: _178  and  _180
REMARK   75  A    between atoms: _180  and  _181
REMARK   76  A    between atoms: _183  and  _185
REMARK   77  A    between atoms: _185  and  _186
REMARK   78  A    between atoms: _185  and  _188
REMARK   79  A    between atoms: _188  and  _189
REMARK   80  A    between atoms: _189  and  _190
REMARK   81  A    between atoms: _195  and  _197
REMARK   82  A    between atoms: _197  and  _198
REMARK   83  A    between atoms: _197  and  _200
REMARK   84  A    between atoms: _200  and  _201
REMARK   85  A    between atoms: _204  and  _206
REMARK   86  A    between atoms: _206  and  _207
REMARK   87  A    between atoms: _206  and  _209
REMARK   88  A    between atoms: _209  and  _210
REMARK   89  A    between atoms: _213  and  _215
REMARK   90  A    between atoms: _215  and  _216
REMARK   91  A    between atoms: _215  and  _218
REMARK   92  A    between atoms: _218  and  _219
REMARK   93  A    between atoms: _219  and  _220
REMARK   94  A    between atoms: _220  and  _221
REMARK   95  A    between atoms: _230  and  _232
REMARK   96  A    between atoms: _232  and  _233
REMARK   97  A    between atoms: _235  and  _237
REMARK   98  A    between atoms: _237  and  _238
REMARK   99  A    between atoms: _237  and  _240
REMARK  100  A    between atoms: _240  and  _241
REMARK  101  A    between atoms: _244  and  _246
REMARK  102  A    between atoms: _246  and  _247
REMARK  103  A    between atoms: _250  and  _252
REMARK  104  A    between atoms: _252  and  _253
REMARK  105  A    between atoms: _252  and  _255
REMARK  106  A    between atoms: _255  and  _256
REMARK  107  A    between atoms: _261  and  _262
REMARK  108  A    between atoms: _264  and  _266
REMARK  109  A    between atoms: _266  and  _267
REMARK  110  A    between atoms: _266  and  _269
REMARK  111  A    between atoms: _269  and  _270
REMARK  112  A    between atoms: _270  and  _271
REMARK  113  A    between atoms: _271  and  _272
REMARK  114  A    between atoms: _272  and  _273
REMARK  115  A    between atoms: _277  and  _279
REMARK  116  A    between atoms: _279  and  _280
REMARK  117  A    between atoms: _279  and  _282
REMARK  118  A    between atoms: _282  and  _283
REMARK  119  A    between atoms: _286  and  _288
REMARK  120  A    between atoms: _288  and  _289
REMARK  121  A    between atoms: _288  and  _291
REMARK  122  A    between atoms: _291  and  _292
REMARK  123  A    between atoms: _294  and  _296
REMARK  124  A    between atoms: _296  and  _297
REMARK  125  A    between atoms: _296  and  _299
REMARK  126  A    between atoms: _299  and  _300
REMARK  127  A    between atoms: _300  and  _415
REMARK  128  A    between atoms: _301  and  _303
REMARK  129  A    between atoms: _303  and  _304
REMARK  130  A    between atoms: _303  and  _306
REMARK  131  A    between atoms: _306  and  _307
REMARK  132  A    between atoms: _307  and  _308
REMARK  133  A    between atoms: _308  and  _309
REMARK  134  A    between atoms: _309  and  _310
REMARK  135  A    between atoms: _314  and  _316
REMARK  136  A    between atoms: _316  and  _317
REMARK  137  A    between atoms: _319  and  _321
REMARK  138  A    between atoms: _321  and  _322
REMARK  139  A    between atoms: _321  and  _324
REMARK  140  A    between atoms: _324  and  _325
REMARK  141  A    between atoms: _328  and  _330
REMARK  142  A    between atoms: _330  and  _331
REMARK  143  A    between atoms: _330  and  _333
REMARK  144  A    between atoms: _333  and  _334
REMARK  145  A    between atoms: _336  and  _338
REMARK  146  A    between atoms: _338  and  _339
REMARK  147  A    between atoms: _341  and  _343
REMARK  148  A    between atoms: _343  and  _344
REMARK  149  A    between atoms: _346  and  _348
REMARK  150  A    between atoms: _348  and  _349
REMARK  151  A    between atoms: _348  and  _351
REMARK  152  A    between atoms: _351  and  _352
REMARK  153  A    between atoms: _355  and  _357
REMARK  154  A    between atoms: _357  and  _358
REMARK  155  A    between atoms: _357  and  _360
REMARK  156  A    between atoms: _363  and  _365
REMARK  157  A    between atoms: _365  and  _366
REMARK  158  A    between atoms: _365  and  _368
REMARK  159  A    between atoms: _368  and  _369
REMARK  160  A    between atoms: _371  and  _373
REMARK  161  A    between atoms: _373  and  _374
REMARK  162  A    between atoms: _373  and  _376
REMARK  163  A    between atoms: _376  and  _377
REMARK  164  A    between atoms: _387  and  _389
REMARK  165  A    between atoms: _389  and  _390
REMARK  166  A    between atoms: _392  and  _394
REMARK  167  A    between atoms: _394  and  _395
REMARK  168  A    between atoms: _394  and  _397
REMARK  169  A    between atoms: _397  and  _398
REMARK  170  A    between atoms: _398  and  _399
REMARK  171  A    between atoms: _404  and  _406
REMARK  172  A    between atoms: _406  and  _407
REMARK  173  A    between atoms: _409  and  _411
REMARK  174  A    between atoms: _411  and  _412
REMARK  175  A    between atoms: _411  and  _414
REMARK  176  A    between atoms: _414  and  _415
REMARK  177  A    between atoms: _416  and  _418
REMARK  178  A    between atoms: _418  and  _419
REMARK  179  A    between atoms: _422  and  _424
REMARK  180  A    between atoms: _424  and  _425
REMARK  181  A    between atoms: _424  and  _427
REMARK  182  A    between atoms: _427  and  _428
REMARK  183  A    between atoms: _431  and  _433
REMARK  184  A    between atoms: _433  and  _434
REMARK  185  A    between atoms: _433  and  _436
REMARK  186  A    between atoms: _436  and  _437
REMARK  187  A    between atoms: _442  and  _444
REMARK  188  A    between atoms: _444  and  _445
REMARK  189  A    between atoms: _444  and  _447
REMARK  190  A    between atoms: _447  and  _448
REMARK  191  A    between atoms: _454  and  _456
REMARK  192  A    between atoms: _456  and  _457
REMARK  193  A    between atoms: _459  and  _461
REMARK  194  A    between atoms: _461  and  _462
REMARK  195  A    between atoms: _461  and  _464
REMARK  196  A    between atoms: _467  and  _469
REMARK  197  A    between atoms: _469  and  _470
REMARK  198  A    between atoms: _469  and  _472
REMARK  199  A    between atoms: _472  and  _473
REMARK  200  A    between atoms: _478  and  _479
REMARK                            x       y       z     vdW  Elec       q    Type
REMARK                         _______ _______ _______ _____ _____    ______ ____
ROOT
ATOM      1  CA  VAL A   1      17.680  26.654  26.518  0.00  0.00    +0.133 C 
ENDROOT
BRANCH   1   2
ATOM      2  CB  VAL A   1      16.478  27.101  27.344  0.00  0.00    +0.023 C 
ATOM      3  CG2 VAL A   1      15.415  26.019  27.383  0.00  0.00    +0.002 C 
ATOM      4  CG1 VAL A   1      15.894  28.372  26.785  0.00  0.00    +0.002 C 
ENDBRANCH   1   2
BRANCH   1   5
ATOM      5  N   VAL A   1      18.398  25.532  27.102  0.00  0.00    -0.239 NA
ATOM      6  H   VAL A   1      18.869  25.684  28.017  0.00  0.00    +0.142 HD
ENDBRANCH   1   5
BRANCH   1   7
ATOM      7  C   VAL A   1      18.727  27.735  26.277  0.00  0.00    +0.224 C 
ATOM      8  O   VAL A   1      19.669  27.858  27.054  0.00  0.00    -0.287 OA
ENDBRANCH   1   7
TORSDOF 3
REMARK  Name = ../refined-set-2016/4na9/4na9_pocket.pdb
REMARK  200 active torsions:
REMARK  status: ('A' for Active; 'I' for Inactive)
REMARK    1  A    between atoms: _1  and  _5
REMARK    2  A    between atoms: _5  and  _6
REMARK    3  A    between atoms: _5  and  _8
REMARK    4  A    between atoms: _8  and  _9
REMARK    5  A    between atoms: _12  and  _14
REMARK    6  A    between atoms: _14  and  _15
REMARK    7  A    between atoms: _14  and  _17
REMARK    8  A    between atoms: _20  and  _22
REMARK    9  A    between atoms: _22  and  _23
REMARK   10  A    between atoms: _22  and  _25
REMARK   11  A    between atoms: _25  and  _26
REMARK   12  A    between atoms: _26  and  _27
REMARK   13  A    between atoms: _32  and  _34
REMARK   14  A    between atoms: _34  and  _35
REMARK   15  A    between atoms: _34  and  _37
REMARK   16  A    between atoms: _37  and  _38
REMARK   17  A    between atoms: _41  and  _43
REMARK   18  A    between atoms: _43  and  _44
REMARK   19  A    between atoms: _43  and  _46
REMARK   20  A    between atoms: _46  and  _47
REMARK   21  A    between atoms: _47  and  _82
REMARK   22  A    between atoms: _48  and  _50
REMARK   23  A    between atoms: _50  and  _51
REMARK   24  A    between atoms: _53  and  _55
REMARK   25  A    between atoms: _55  and  _56
REMARK   26  A    between atoms: _59  and  _61
REMARK   27  A    between atoms: _61  and  _62
REMARK   28  A    between atoms: _65  and  _67
REMARK   29  A    between atoms: _67  and  _68
REMARK   30  A    between atoms: _67  and  _70
REMARK   31  A    between atoms: _70  and  _71
REMARK   32  A    between atoms: _76  and  _78
REMARK   33  A    between atoms: _78  and  _79
REMARK   34  A    between atoms: _78  and  _81
REMARK   35  A    between atoms: _81  and  _82
REMARK   36  A    between atoms: _83  and  _85
REMARK   37  A    between atoms: _85  and  _86
REMARK   38  A    between atoms: _85  and  _88
REMARK   39  A    between atoms: _88  and  _89
REMARK   40  A    between atoms: _95  and  _97
REMARK   41  A    between atoms: _97  and  _98
REMARK   42  A    between atoms: _97  and  _100
REMARK   43  A    between atoms: _100  and  _101
REMARK   44  A    between atoms: _104  and  _106
REMARK   45  A    between atoms: _106  and  _107
REMARK   46  A    between atoms: _106  and  _109
REMARK   47  A    between atoms: _109  and  _110
REMARK   48  A    between atoms: _110  and  _111
REMARK   49  A    between atoms: _111  and  _112
REMARK   50  A    between atoms: _112  and  _113
REMARK   51  A    between atoms: _117  and  _119
REMARK   52  A    between atoms: _119  and  _120
REMARK   53  A    between atoms: _119  and  _122
REMARK   54  A    between atoms: _122  and  _123
REMARK   55  A    between atoms: _128  and  _129
REMARK   56  A    between atoms: _132  and  _133
REMARK   57  A    between atoms: _138  and  _140
REMARK   58  A    between atoms: _140  and  _141
REMARK   59  A    between atoms: _143  and  _145
REMARK   60  A    between atoms: _145  and  _146
REMARK   61  A    between atoms: _145  and  _148
REMARK   62  A    between atoms: _148  and  _149
REMARK   63  A    between atoms: _152  and  _154
REMARK   64  A    between atoms: _154  and  _155
REMARK   65  A    between atoms: _154  and  _157
REMARK   66  A    between atoms: _157  and  _158
REMARK   67  A    between atoms: _161  and  _163
REMARK   68  A    between atoms: _163  and  _164
REMARK   69  A    between atoms: _163  and  _166
REMARK   70  A    between atoms: _166  and  _167
REMARK   71  A    between atoms: _170  and  _172
REMARK   72  A    between atoms: _172  and  _173
REMARK   73  A    between atoms: _172  and  _175
REMARK   74  A    between atoms: _178  and  _180
REMARK   75  A    between atoms: _180  and  _181
REMARK   76  A    between atoms: _183  and  _185
REMARK   77  A    between atoms: _185  and  _186
REMARK   78  A    between atoms: _185  and  _188
REMARK   79  A    between atoms: _188  and  _189
REMARK   80  A    between atoms: _189  and  _190
REMARK   81  A    between atoms: _195  and  _197
REMARK   82  A    between atoms: _197  and  _198
REMARK   83  A    between atoms: _197  and  _200
REMARK   84  A    between atoms: _200  and  _201
REMARK   85  A    between atoms: _204  and  _206
REMARK   86  A    between atoms: _206  and  _207
REMARK   87  A    between atoms: _206  and  _209
REMARK   88  A    between atoms: _209  and  _210
REMARK   89  A    between atoms: _213  and  _215
REMARK   90  A    between atoms: _215  and  _216
REMARK   91  A    between atoms: _215  and  _218
REMARK   92  A    between atoms: _218  and  _219
REMARK   93  A    between atoms: _219  and  _220
REMARK   94  A    between atoms: _220  and  _221
REMARK   95  A    between atoms: _230  and  _232
REMARK   96  A    between atoms: _232  and  _233
REMARK   97  A    between atoms: _235  and  _237
REMARK   98  A    between atoms: _237  and  _238
REMARK   99  A    between atoms: _237  and  _240
REMARK  100  A    between atoms: _240  and  _241
REMARK  101  A    between atoms: _244  and  _246
REMARK  102  A    between atoms: _246  and  _247
REMARK  103  A    between atoms: _250  and  _252
REMARK  104  A    between atoms: _252  and  _253
REMARK  105  A    between atoms: _252  and  _255
REMARK  106  A    between atoms: _255  and  _256
REMARK  107  A    between atoms: _261  and  _262
REMARK  108  A    between atoms: _264  and  _266
REMARK  109  A    between atoms: _266  and  _267
REMARK  110  A    between atoms: _266  and  _269
REMARK  111  A    between atoms: _269  and  _270
REMARK  112  A    between atoms: _270  and  _271
REMARK  113  A    between atoms: _271  and  _272
REMARK  114  A    between atoms: _272  and  _273
REMARK  115  A    between atoms: _277  and  _279
REMARK  116  A    between atoms: _279  and  _280
REMARK  117  A    between atoms: _279  and  _282
REMARK  118  A    between atoms: _282  and  _283
REMARK  119  A    between atoms: _286  and  _288
REMARK  120  A    between atoms: _288  and  _289
REMARK  121  A    between atoms: _288  and  _291
REMARK  122  A    between atoms: _291  and  _292
REMARK  123  A    between atoms: _294  and  _296
REMARK  124  A    between atoms: _296  and  _297
REMARK  125  A    between atoms: _296  and  _299
REMARK  126  A    between atoms: _299  and  _300
REMARK  127  A    between atoms: _300  and  _415
REMARK  128  A    between atoms: _301  and  _303
REMARK  129  A    between atoms: _303  and  _304
REMARK  130  A    between atoms: _303  and  _306
REMARK  131  A    between atoms: _306  and  _307
REMARK  132  A    between atoms: _307  and  _308
REMARK  133  A    between atoms: _308  and  _309
REMARK  134  A    between atoms: _309  and  _310
REMARK  135  A    between atoms: _314  and  _316
REMARK  136  A    between atoms: _316  and  _317
REMARK  137  A    between atoms: _319  and  _321
REMARK  138  A    between atoms: _321  and  _322
REMARK  139  A    between atoms: _321  and  _324
REMARK  140  A    between atoms: _324  and  _325
REMARK  141  A    between atoms: _328  and  _330
REMARK  142  A    between atoms: _330  and  _331
REMARK  143  A    between atoms: _330  and  _333
REMARK  144  A    between atoms: _333  and  _334
REMARK  145  A    between atoms: _336  and  _338
REMARK  146  A    between atoms: _338  and  _339
REMARK  147  A    between atoms: _341  and  _343
REMARK  148  A    between atoms: _343  and  _344
REMARK  149  A    between atoms: _346  and  _348
REMARK  150  A    between atoms: _348  and  _349
REMARK  151  A    between atoms: _348  and  _351
REMARK  152  A    between atoms: _351  and  _352
REMARK  153  A    between atoms: _355  and  _357
REMARK  154  A    between atoms: _357  and  _358
REMARK  155  A    between atoms: _357  and  _360
REMARK  156  A    between atoms: _363  and  _365
REMARK  157  A    between atoms: _365  and  _366
REMARK  158  A    between atoms: _365  and  _368
REMARK  159  A    between atoms: _368  and  _369
REMARK  160  A    between atoms: _371  and  _373
REMARK  161  A    between atoms: _373  and  _374
REMARK  162  A    between atoms: _373  and  _376
REMARK  163  A    between atoms: _376  and  _377
REMARK  164  A    between atoms: _387  and  _389
REMARK  165  A    between atoms: _389  and  _390
REMARK  166  A    between atoms: _392  and  _394
REMARK  167  A    between atoms: _394  and  _395
REMARK  168  A    between atoms: _394  and  _397
REMARK  169  A    between atoms: _397  and  _398
REMARK  170  A    between atoms: _398  and  _399
REMARK  171  A    between atoms: _404  and  _406
REMARK  172  A    between atoms: _406  and  _407
REMARK  173  A    between atoms: _409  and  _411
REMARK  174  A    between atoms: _411  and  _412
REMARK  175  A    between atoms: _411  and  _414
REMARK  176  A    between atoms: _414  and  _415
REMARK  177  A    between atoms: _416  and  _418
REMARK  178  A    between atoms: _418  and  _419
REMARK  179  A    between atoms: _422  and  _424
REMARK  180  A    between atoms: _424  and  _425
REMARK  181  A    between atoms: _424  and  _427
REMARK  182  A    between atoms: _427  and  _428
REMARK  183  A    between atoms: _431  and  _433
REMARK  184  A    between atoms: _433  and  _434
REMARK  185  A    between atoms: _433  and  _436
REMARK  186  A    between atoms: _436  and  _437
REMARK  187  A    between atoms: _442  and  _444
REMARK  188  A    between atoms: _444  and  _445
REMARK  189  A    between atoms: _444  and  _447
REMARK  190  A    between atoms: _447  and  _448
REMARK  191  A    between atoms: _454  and  _456
REMARK  192  A    between atoms: _456  and  _457
REMARK  193  A    between atoms: _459  and  _461
REMARK  194  A    between atoms: _461  and  _462
REMARK  195  A    between atoms: _461  and  _464
REMARK  196  A    between atoms: _467  and  _469
REMARK  197  A    between atoms: _469  and  _470
REMARK  198  A    between atoms: _469  and  _472
REMARK  199  A    between atoms: _472  and  _473
REMARK  200  A    between atoms: _478  and  _479
REMARK                            x       y       z     vdW  Elec       q    Type
REMARK                         _______ _______ _______ _____ _____    ______ ____
ROOT
ATOM      1  CA  GLN A   2      17.534  39.731  28.433  0.00  0.00    +0.137 C 
ENDROOT
BRANCH   1   3
ATOM      2  C   GLY A   1      18.222  38.334  26.523  0.00  0.00    +0.240 C 
ATOM      3  N   GLN A   2      17.274  38.960  27.210  0.00  0.00    -0.298 N 
ATOM      4  H   GLN A   2      16.295  38.901  26.864  0.00  0.00    +0.150 HD
ATOM      5  O   GLY A   1      19.416  38.313  26.867  0.00  0.00    -0.274 OA
BRANCH   2   6
ATOM      6  CA  GLY A   1      17.750  37.646  25.260  0.00  0.00    +0.169 C 
BRANCH   6   7
ATOM      7  N   GLY A   1      18.789  36.890  24.586  0.00  0.00    -0.236 NA
ATOM      8  H   GLY A   1      18.749  35.852  24.630  0.00  0.00    +0.142 HD
ENDBRANCH   6   7
ENDBRANCH   2   6
ENDBRANCH   1   3
BRANCH   1   9
ATOM      9  C   GLN A   2      18.203  38.882  29.473  0.00  0.00    +0.227 C 
ATOM     10  O   GLN A   2      17.795  37.743  29.690  0.00  0.00    -0.286 OA
ENDBRANCH   1   9
BRANCH   1  11
ATOM     11  CB  GLN A   2      16.225  40.272  28.990  0.00  0.00    +0.037 C 
BRANCH  11  12
ATOM     12  CG  GLN A   2      15.621  41.321  28.086  0.00  0.00    +0.087 C 
BRANCH  12  13
ATOM     13  CD  GLN A   2      14.418  41.969  28.723  0.00  0.00    +0.219 C 
ATOM     14  NE2 GLN A   2      13.460  41.191  29.188  0.00  0.00    -0.329 N 
ATOM     15 HE21 GLN A   2      12.603  41.611  29.600  0.00  0.00    +0.145 HD
ATOM     16 HE22 GLN A   2      13.562  40.157  29.143  0.00  0.00    +0.145 HD
ATOM     17  OE1 GLN A   2      14.313  43.174  28.769  0.00  0.00    -0.275 OA
ENDBRANCH  12  13
ENDBRANCH  11  12
ENDBRANCH   1  11
TORSDOF 7
REMARK  Name = ../refined-set-2016/4na9/4na9_pocket.pdb
REMARK  200 active torsions:
REMARK  status: ('A' for Active; 'I' for Inactive)
REMARK    1  A    between atoms: _1  and  _5
REMARK    2  A    between atoms: _5  and  _6
REMARK    3  A    between atoms: _5  and  _8
REMARK    4  A    between atoms: _8  and  _9
REMARK    5  A    between atoms: _12  and  _14
REMARK    6  A    between atoms: _14  and  _15
REMARK    7  A    between atoms: _14  and  _17
REMARK    8  A    between atoms: _20  and  _22
REMARK    9  A    between atoms: _22  and  _23
REMARK   10  A    between atoms: _22  and  _25
REMARK   11  A    between atoms: _25  and  _26
REMARK   12  A    between atoms: _26  and  _27
REMARK   13  A    between atoms: _32  and  _34
REMARK   14  A    between atoms: _34  and  _35
REMARK   15  A    between atoms: _34  and  _37
REMARK   16  A    between atoms: _37  and  _38
REMARK   17  A    between atoms: _41  and  _43
REMARK   18  A    between atoms: _43  and  _44
REMARK   19  A    between atoms: _43  and  _46
REMARK   20  A    between atoms: _46  and  _47
REMARK   21  A    between atoms: _47  and  _82
REMARK   22  A    between atoms: _48  and  _50
REMARK   23  A    between atoms: _50  and  _51
REMARK   24  A    between atoms: _53  and  _55
REMARK   25  A    between atoms: _55  and  _56
REMARK   26  A    between atoms: _59  and  _61
REMARK   27  A    between atoms: _61  and  _62
REMARK   28  A    between atoms: _65  and  _67
REMARK   29  A    between atoms: _67  and  _68
REMARK   30  A    between atoms: _67  and  _70
REMARK   31  A    between atoms: _70  and  _71
REMARK   32  A    between atoms: _76  and  _78
REMARK   33  A    between atoms: _78  and  _79
REMARK   34  A    between atoms: _78  and  _81
REMARK   35  A    between atoms: _81  and  _82
REMARK   36  A    between atoms: _83  and  _85
REMARK   37  A    between atoms: _85  and  _86
REMARK   38  A    between atoms: _85  and  _88
REMARK   39  A    between atoms: _88  and  _89
REMARK   40  A    between atoms: _95  and  _97
REMARK   41  A    between atoms: _97  and  _98
REMARK   42  A    between atoms: _97  and  _100
REMARK   43  A    between atoms: _100  and  _101
REMARK   44  A    between atoms: _104  and  _106
REMARK   45  A    between atoms: _106  and  _107
REMARK   46  A    between atoms: _106  and  _109
REMARK   47  A    between atoms: _109  and  _110
REMARK   48  A    between atoms: _110  and  _111
REMARK   49  A    between atoms: _111  and  _112
REMARK   50  A    between atoms: _112  and  _113
REMARK   51  A    between atoms: _117  and  _119
REMARK   52  A    between atoms: _119  and  _120
REMARK   53  A    between atoms: _119  and  _122
REMARK   54  A    between atoms: _122  and  _123
REMARK   55  A    between atoms: _128  and  _129
REMARK   56  A    between atoms: _132  and  _133
REMARK   57  A    between atoms: _138  and  _140
REMARK   58  A    between atoms: _140  and  _141
REMARK   59  A    between atoms: _143  and  _145
REMARK   60  A    between atoms: _145  and  _146
REMARK   61  A    between atoms: _145  and  _148
REMARK   62  A    between atoms: _148  and  _149
REMARK   63  A    between atoms: _152  and  _154
REMARK   64  A    between atoms: _154  and  _155
REMARK   65  A    between atoms: _154  and  _157
REMARK   66  A    between atoms: _157  and  _158
REMARK   67  A    between atoms: _161  and  _163
REMARK   68  A    between atoms: _163  and  _164
REMARK   69  A    between atoms: _163  and  _166
REMARK   70  A    between atoms: _166  and  _167
REMARK   71  A    between atoms: _170  and  _172
REMARK   72  A    between atoms: _172  and  _173
REMARK   73  A    between atoms: _172  and  _175
REMARK   74  A    between atoms: _178  and  _180
REMARK   75  A    between atoms: _180  and  _181
REMARK   76  A    between atoms: _183  and  _185
REMARK   77  A    between atoms: _185  and  _186
REMARK   78  A    between atoms: _185  and  _188
REMARK   79  A    between atoms: _188  and  _189
REMARK   80  A    between atoms: _189  and  _190
REMARK   81  A    between atoms: _195  and  _197
REMARK   82  A    between atoms: _197  and  _198
REMARK   83  A    between atoms: _197  and  _200
REMARK   84  A    between atoms: _200  and  _201
REMARK   85  A    between atoms: _204  and  _206
REMARK   86  A    between atoms: _206  and  _207
REMARK   87  A    between atoms: _206  and  _209
REMARK   88  A    between atoms: _209  and  _210
REMARK   89  A    between atoms: _213  and  _215
REMARK   90  A    between atoms: _215  and  _216
REMARK   91  A    between atoms: _215  and  _218
REMARK   92  A    between atoms: _218  and  _219
REMARK   93  A    between atoms: _219  and  _220
REMARK   94  A    between atoms: _220  and  _221
REMARK   95  A    between atoms: _230  and  _232
REMARK   96  A    between atoms: _232  and  _233
REMARK   97  A    between atoms: _235  and  _237
REMARK   98  A    between atoms: _237  and  _238
REMARK   99  A    between atoms: _237  and  _240
REMARK  100  A    between atoms: _240  and  _241
REMARK  101  A    between atoms: _244  and  _246
REMARK  102  A    between atoms: _246  and  _247
REMARK  103  A    between atoms: _250  and  _252
REMARK  104  A    between atoms: _252  and  _253
REMARK  105  A    between atoms: _252  and  _255
REMARK  106  A    between atoms: _255  and  _256
REMARK  107  A    between atoms: _261  and  _262
REMARK  108  A    between atoms: _264  and  _266
REMARK  109  A    between atoms: _266  and  _267
REMARK  110  A    between atoms: _266  and  _269
REMARK  111  A    between atoms: _269  and  _270
REMARK  112  A    between atoms: _270  and  _271
REMARK  113  A    between atoms: _271  and  _272
REMARK  114  A    between atoms: _272  and  _273
REMARK  115  A    between atoms: _277  and  _279
REMARK  116  A    between atoms: _279  and  _280
REMARK  117  A    between atoms: _279  and  _282
REMARK  118  A    between atoms: _282  and  _283
REMARK  119  A    between atoms: _286  and  _288
REMARK  120  A    between atoms: _288  and  _289
REMARK  121  A    between atoms: _288  and  _291
REMARK  122  A    between atoms: _291  and  _292
REMARK  123  A    between atoms: _294  and  _296
REMARK  124  A    between atoms: _296  and  _297
REMARK  125  A    between atoms: _296  and  _299
REMARK  126  A    between atoms: _299  and  _300
REMARK  127  A    between atoms: _300  and  _415
REMARK  128  A    between atoms: _301  and  _303
REMARK  129  A    between atoms: _303  and  _304
REMARK  130  A    between atoms: _303  and  _306
REMARK  131  A    between atoms: _306  and  _307
REMARK  132  A    between atoms: _307  and  _308
REMARK  133  A    between atoms: _308  and  _309
REMARK  134  A    between atoms: _309  and  _310
REMARK  135  A    between atoms: _314  and  _316
REMARK  136  A    between atoms: _316  and  _317
REMARK  137  A    between atoms: _319  and  _321
REMARK  138  A    between atoms: _321  and  _322
REMARK  139  A    between atoms: _321  and  _324
REMARK  140  A    between atoms: _324  and  _325
REMARK  141  A    between atoms: _328  and  _330
REMARK  142  A    between atoms: _330  and  _331
REMARK  143  A    between atoms: _330  and  _333
REMARK  144  A    between atoms: _333  and  _334
REMARK  145  A    between atoms: _336  and  _338
REMARK  146  A    between atoms: _338  and  _339
REMARK  147  A    between atoms: _341  and  _343
REMARK  148  A    between atoms: _343  and  _344
REMARK  149  A    between atoms: _346  and  _348
REMARK  150  A    between atoms: _348  and  _349
REMARK  151  A    between atoms: _348  and  _351
REMARK  152  A    between atoms: _351  and  _352
REMARK  153  A    between atoms: _355  and  _357
REMARK  154  A    between atoms: _357  and  _358
REMARK  155  A    between atoms: _357  and  _360
REMARK  156  A    between atoms: _363  and  _365
REMARK  157  A    between atoms: _365  and  _366
REMARK  158  A    between atoms: _365  and  _368
REMARK  159  A    between atoms: _368  and  _369
REMARK  160  A    between atoms: _371  and  _373
REMARK  161  A    between atoms: _373  and  _374
REMARK  162  A    between atoms: _373  and  _376
REMARK  163  A    between atoms: _376  and  _377
REMARK  164  A    between atoms: _387  and  _389
REMARK  165  A    between atoms: _389  and  _390
REMARK  166  A    between atoms: _392  and  _394
REMARK  167  A    between atoms: _394  and  _395
REMARK  168  A    between atoms: _394  and  _397
REMARK  169  A    between atoms: _397  and  _398
REMARK  170  A    between atoms: _398  and  _399
REMARK  171  A    between atoms: _404  and  _406
REMARK  172  A    between atoms: _406  and  _407
REMARK  173  A    between atoms: _409  and  _411
REMARK  174  A    between atoms: _411  and  _412
REMARK  175  A    between atoms: _411  and  _414
REMARK  176  A    between atoms: _414  and  _415
REMARK  177  A    between atoms: _416  and  _418
REMARK  178  A    between atoms: _418  and  _419
REMARK  179  A    between atoms: _422  and  _424
REMARK  180  A    between atoms: _424  and  _425
REMARK  181  A    between atoms: _424  and  _427
REMARK  182  A    between atoms: _427  and  _428
REMARK  183  A    between atoms: _431  and  _433
REMARK  184  A    between atoms: _433  and  _434
REMARK  185  A    between atoms: _433  and  _436
REMARK  186  A    between atoms: _436  and  _437
REMARK  187  A    between atoms: _442  and  _444
REMARK  188  A    between atoms: _444  and  _445
REMARK  189  A    between atoms: _444  and  _447
REMARK  190  A    between atoms: _447  and  _448
REMARK  191  A    between atoms: _454  and  _456
REMARK  192  A    between atoms: _456  and  _457
REMARK  193  A    between atoms: _459  and  _461
REMARK  194  A    between atoms: _461  and  _462
REMARK  195  A    between atoms: _461  and  _464
REMARK  196  A    between atoms: _467  and  _469
REMARK  197  A    between atoms: _469  and  _470
REMARK  198  A    between atoms: _469  and  _472
REMARK  199  A    between atoms: _472  and  _473
REMARK  200  A    between atoms: _478  and  _479
REMARK                            x       y       z     vdW  Elec       q    Type
REMARK                         _______ _______ _______ _____ _____    ______ ____
ROOT
ATOM      1  C   ASP A   2      13.942  42.382  33.872  0.00  0.00    +0.241 C 
ATOM      2  O   ASP A   2      14.625  42.894  34.760  0.00  0.00    -0.273 OA
ATOM      3  N   ARG A   3      13.513  43.077  32.817  0.00  0.00    -0.297 N 
ATOM      4  H   ARG A   3      13.043  42.553  32.051  0.00  0.00    +0.150 HD
ENDROOT
BRANCH   3   5
ATOM      5  CA  ARG A   3      13.659  44.537  32.661  0.00  0.00    +0.149 C 
BRANCH   5   6
ATOM      6  C   ARG A   3      15.137  44.975  32.506  0.00  0.00    +0.241 C 
ATOM      7  O   ARG A   3      15.484  46.137  32.739  0.00  0.00    -0.273 OA
ATOM      8  N   GLY A   4      15.975  44.054  32.026  0.00  0.00    -0.296 N 
ATOM      9  H   GLY A   4      15.598  43.117  31.777  0.00  0.00    +0.150 HD
BRANCH   8  10
ATOM     10  CA  GLY A   4      17.396  44.308  31.837  0.00  0.00    +0.163 C 
BRANCH  10  11
ATOM     11  C   GLY A   4      17.859  44.286  30.403  0.00  0.00    +0.229 C 
ATOM     12  O   GLY A   4      17.067  44.082  29.480  0.00  0.00    -0.286 OA
ENDBRANCH  10  11
ENDBRANCH   8  10
ENDBRANCH   5   6
BRANCH   5  13
ATOM     13  CB  ARG A   3      12.920  45.300  33.785  0.00  0.00    +0.033 C 
BRANCH  13  14
ATOM     14  CG  ARG A   3      11.397  45.091  33.691  0.00  0.00    +0.045 C 
BRANCH  14  15
ATOM     15  CD  ARG A   3      10.622  45.773  34.791  0.00  0.00    +0.174 C 
BRANCH  15  16
ATOM     16  NE  ARG A   3      10.601  44.984  36.028  0.00  0.00    -0.265 N 
ATOM     17  CZ  ARG A   3       9.867  45.283  37.099  0.00  0.00    +0.342 C 
ATOM     18  NH2 ARG A   3       9.919  44.516  38.180  0.00  0.00    -0.292 N 
ATOM     19 HH21 ARG A   3       9.344  44.753  39.014  0.00  0.00    +0.255 HD
ATOM     20 HH22 ARG A   3      10.534  43.678  38.194  0.00  0.00    +0.255 HD
ATOM     21  NH1 ARG A   3       9.069  46.344  37.091  0.00  0.00    -0.292 N 
ATOM     22 HH11 ARG A   3       8.499  46.572  37.930  0.00  0.00    +0.255 HD
ATOM     23 HH12 ARG A   3       9.014  46.947  36.246  0.00  0.00    +0.255 HD
ATOM     24  HE  ARG A   3      11.199  44.134  36.072  0.00  0.00    +0.259 HD
ENDBRANCH  15  16
ENDBRANCH  14  15
ENDBRANCH  13  14
ENDBRANCH   5  13
ENDBRANCH   3   5
BRANCH   1  25
ATOM     25  CA  ASP A   2      13.744  40.827  33.845  0.00  0.00    +0.160 C 
BRANCH  25  27
ATOM     26  C   LEU A   1      16.128  40.500  33.302  0.00  0.00    +0.238 C 
ATOM     27  N   ASP A   2      15.084  40.283  34.115  0.00  0.00    -0.297 N 
ATOM     28  H   ASP A   2      15.227  39.708  34.970  0.00  0.00    +0.150 HD
ATOM     29  O   LEU A   1      16.051  41.144  32.256  0.00  0.00    -0.274 OA
BRANCH  26  30
ATOM     30  CA  LEU A   1      17.471  40.033  33.779  0.00  0.00    +0.145 C 
BRANCH  30  31
ATOM     31  N   LEU A   1      18.299  39.766  32.598  0.00  0.00    -0.238 NA
ATOM     32  H   LEU A   1      18.123  40.356  31.760  0.00  0.00    +0.142 HD
ENDBRANCH  30  31
BRANCH  30  33
ATOM     33  CB  LEU A   1      18.044  41.234  34.586  0.00  0.00    +0.026 C 
BRANCH  33  34
ATOM     34  CG  LEU A   1      19.436  41.151  35.191  0.00  0.00    +0.002 C 
ATOM     35  CD2 LEU A   1      19.522  40.034  36.277  0.00  0.00    +0.000 C 
ATOM     36  CD1 LEU A   1      19.826  42.496  35.763  0.00  0.00    +0.000 C 
ENDBRANCH  33  34
ENDBRANCH  30  33
ENDBRANCH  26  30
ENDBRANCH  25  27
BRANCH  25  37
ATOM     37  CB  ASP A   2      12.760  40.379  34.950  0.00  0.00    +0.143 C 
BRANCH  37  38
ATOM     38  CG  ASP A   2      11.286  40.454  34.604  0.00  0.00    +0.367 C 
ATOM     39  OD2 ASP A   2      10.469  39.811  35.322  0.00  0.00    -0.246 OA
ATOM     40  OD1 ASP A   2      10.943  41.129  33.611  0.00  0.00    -0.246 OA
ENDBRANCH  37  38
ENDBRANCH  25  37
ENDBRANCH   1  25
TORSDOF 16
REMARK  Name = ../refined-set-2016/4na9/4na9_pocket.pdb
REMARK  200 active torsions:
REMARK  status: ('A' for Active; 'I' for Inactive)
REMARK    1  A    between atoms: _1  and  _5
REMARK    2  A    between atoms: _5  and  _6
REMARK    3  A    between atoms: _5  and  _8
REMARK    4  A    between atoms: _8  and  _9
REMARK    5  A    between atoms: _12  and  _14
REMARK    6  A    between atoms: _14  and  _15
REMARK    7  A    between atoms: _14  and  _17
REMARK    8  A    between atoms: _20  and  _22
REMARK    9  A    between atoms: _22  and  _23
REMARK   10  A    between atoms: _22  and  _25
REMARK   11  A    between atoms: _25  and  _26
REMARK   12  A    between atoms: _26  and  _27
REMARK   13  A    between atoms: _32  and  _34
REMARK   14  A    between atoms: _34  and  _35
REMARK   15  A    between atoms: _34  and  _37
REMARK   16  A    between atoms: _37  and  _38
REMARK   17  A    between atoms: _41  and  _43
REMARK   18  A    between atoms: _43  and  _44
REMARK   19  A    between atoms: _43  and  _46
REMARK   20  A    between atoms: _46  and  _47
REMARK   21  A    between atoms: _47  and  _82
REMARK   22  A    between atoms: _48  and  _50
REMARK   23  A    between atoms: _50  and  _51
REMARK   24  A    between atoms: _53  and  _55
REMARK   25  A    between atoms: _55  and  _56
REMARK   26  A    between atoms: _59  and  _61
REMARK   27  A    between atoms: _61  and  _62
REMARK   28  A    between atoms: _65  and  _67
REMARK   29  A    between atoms: _67  and  _68
REMARK   30  A    between atoms: _67  and  _70
REMARK   31  A    between atoms: _70  and  _71
REMARK   32  A    between atoms: _76  and  _78
REMARK   33  A    between atoms: _78  and  _79
REMARK   34  A    between atoms: _78  and  _81
REMARK   35  A    between atoms: _81  and  _82
REMARK   36  A    between atoms: _83  and  _85
REMARK   37  A    between atoms: _85  and  _86
REMARK   38  A    between atoms: _85  and  _88
REMARK   39  A    between atoms: _88  and  _89
REMARK   40  A    between atoms: _95  and  _97
REMARK   41  A    between atoms: _97  and  _98
REMARK   42  A    between atoms: _97  and  _100
REMARK   43  A    between atoms: _100  and  _101
REMARK   44  A    between atoms: _104  and  _106
REMARK   45  A    between atoms: _106  and  _107
REMARK   46  A    between atoms: _106  and  _109
REMARK   47  A    between atoms: _109  and  _110
REMARK   48  A    between atoms: _110  and  _111
REMARK   49  A    between atoms: _111  and  _112
REMARK   50  A    between atoms: _112  and  _113
REMARK   51  A    between atoms: _117  and  _119
REMARK   52  A    between atoms: _119  and  _120
REMARK   53  A    between atoms: _119  and  _122
REMARK   54  A    between atoms: _122  and  _123
REMARK   55  A    between atoms: _128  and  _129
REMARK   56  A    between atoms: _132  and  _133
REMARK   57  A    between atoms: _138  and  _140
REMARK   58  A    between atoms: _140  and  _141
REMARK   59  A    between atoms: _143  and  _145
REMARK   60  A    between atoms: _145  and  _146
REMARK   61  A    between atoms: _145  and  _148
REMARK   62  A    between atoms: _148  and  _149
REMARK   63  A    between atoms: _152  and  _154
REMARK   64  A    between atoms: _154  and  _155
REMARK   65  A    between atoms: _154  and  _157
REMARK   66  A    between atoms: _157  and  _158
REMARK   67  A    between atoms: _161  and  _163
REMARK   68  A    between atoms: _163  and  _164
REMARK   69  A    between atoms: _163  and  _166
REMARK   70  A    between atoms: _166  and  _167
REMARK   71  A    between atoms: _170  and  _172
REMARK   72  A    between atoms: _172  and  _173
REMARK   73  A    between atoms: _172  and  _175
REMARK   74  A    between atoms: _178  and  _180
REMARK   75  A    between atoms: _180  and  _181
REMARK   76  A    between atoms: _183  and  _185
REMARK   77  A    between atoms: _185  and  _186
REMARK   78  A    between atoms: _185  and  _188
REMARK   79  A    between atoms: _188  and  _189
REMARK   80  A    between atoms: _189  and  _190
REMARK   81  A    between atoms: _195  and  _197
REMARK   82  A    between atoms: _197  and  _198
REMARK   83  A    between atoms: _197  and  _200
REMARK   84  A    between atoms: _200  and  _201
REMARK   85  A    between atoms: _204  and  _206
REMARK   86  A    between atoms: _206  and  _207
REMARK   87  A    between atoms: _206  and  _209
REMARK   88  A    between atoms: _209  and  _210
REMARK   89  A    between atoms: _213  and  _215
REMARK   90  A    between atoms: _215  and  _216
REMARK   91  A    between atoms: _215  and  _218
REMARK   92  A    between atoms: _218  and  _219
REMARK   93  A    between atoms: _219  and  _220
REMARK   94  A    between atoms: _220  and  _221
REMARK   95  A    between atoms: _230  and  _232
REMARK   96  A    between atoms: _232  and  _233
REMARK   97  A    between atoms: _235  and  _237
REMARK   98  A    between atoms: _237  and  _238
REMARK   99  A    between atoms: _237  and  _240
REMARK  100  A    between atoms: _240  and  _241
REMARK  101  A    between atoms: _244  and  _246
REMARK  102  A    between atoms: _246  and  _247
REMARK  103  A    between atoms: _250  and  _252
REMARK  104  A    between atoms: _252  and  _253
REMARK  105  A    between atoms: _252  and  _255
REMARK  106  A    between atoms: _255  and  _256
REMARK  107  A    between atoms: _261  and  _262
REMARK  108  A    between atoms: _264  and  _266
REMARK  109  A    between atoms: _266  and  _267
REMARK  110  A    between atoms: _266  and  _269
REMARK  111  A    between atoms: _269  and  _270
REMARK  112  A    between atoms: _270  and  _271
REMARK  113  A    between atoms: _271  and  _272
REMARK  114  A    between atoms: _272  and  _273
REMARK  115  A    between atoms: _277  and  _279
REMARK  116  A    between atoms: _279  and  _280
REMARK  117  A    between atoms: _279  and  _282
REMARK  118  A    between atoms: _282  and  _283
REMARK  119  A    between atoms: _286  and  _288
REMARK  120  A    between atoms: _288  and  _289
REMARK  121  A    between atoms: _288  and  _291
REMARK  122  A    between atoms: _291  and  _292
REMARK  123  A    between atoms: _294  and  _296
REMARK  124  A    between atoms: _296  and  _297
REMARK  125  A    between atoms: _296  and  _299
REMARK  126  A    between atoms: _299  and  _300
REMARK  127  A    between atoms: _300  and  _415
REMARK  128  A    between atoms: _301  and  _303
REMARK  129  A    between atoms: _303  and  _304
REMARK  130  A    between atoms: _303  and  _306
REMARK  131  A    between atoms: _306  and  _307
REMARK  132  A    between atoms: _307  and  _308
REMARK  133  A    between atoms: _308  and  _309
REMARK  134  A    between atoms: _309  and  _310
REMARK  135  A    between atoms: _314  and  _316
REMARK  136  A    between atoms: _316  and  _317
REMARK  137  A    between atoms: _319  and  _321
REMARK  138  A    between atoms: _321  and  _322
REMARK  139  A    between atoms: _321  and  _324
REMARK  140  A    between atoms: _324  and  _325
REMARK  141  A    between atoms: _328  and  _330
REMARK  142  A    between atoms: _330  and  _331
REMARK  143  A    between atoms: _330  and  _333
REMARK  144  A    between atoms: _333  and  _334
REMARK  145  A    between atoms: _336  and  _338
REMARK  146  A    between atoms: _338  and  _339
REMARK  147  A    between atoms: _341  and  _343
REMARK  148  A    between atoms: _343  and  _344
REMARK  149  A    between atoms: _346  and  _348
REMARK  150  A    between atoms: _348  and  _349
REMARK  151  A    between atoms: _348  and  _351
REMARK  152  A    between atoms: _351  and  _352
REMARK  153  A    between atoms: _355  and  _357
REMARK  154  A    between atoms: _357  and  _358
REMARK  155  A    between atoms: _357  and  _360
REMARK  156  A    between atoms: _363  and  _365
REMARK  157  A    between atoms: _365  and  _366
REMARK  158  A    between atoms: _365  and  _368
REMARK  159  A    between atoms: _368  and  _369
REMARK  160  A    between atoms: _371  and  _373
REMARK  161  A    between atoms: _373  and  _374
REMARK  162  A    between atoms: _373  and  _376
REMARK  163  A    between atoms: _376  and  _377
REMARK  164  A    between atoms: _387  and  _389
REMARK  165  A    between atoms: _389  and  _390
REMARK  166  A    between atoms: _392  and  _394
REMARK  167  A    between atoms: _394  and  _395
REMARK  168  A    between atoms: _394  and  _397
REMARK  169  A    between atoms: _397  and  _398
REMARK  170  A    between atoms: _398  and  _399
REMARK  171  A    between atoms: _404  and  _406
REMARK  172  A    between atoms: _406  and  _407
REMARK  173  A    between atoms: _409  and  _411
REMARK  174  A    between atoms: _411  and  _412
REMARK  175  A    between atoms: _411  and  _414
REMARK  176  A    between atoms: _414  and  _415
REMARK  177  A    between atoms: _416  and  _418
REMARK  178  A    between atoms: _418  and  _419
REMARK  179  A    between atoms: _422  and  _424
REMARK  180  A    between atoms: _424  and  _425
REMARK  181  A    between atoms: _424  and  _427
REMARK  182  A    between atoms: _427  and  _428
REMARK  183  A    between atoms: _431  and  _433
REMARK  184  A    between atoms: _433  and  _434
REMARK  185  A    between atoms: _433  and  _436
REMARK  186  A    between atoms: _436  and  _437
REMARK  187  A    between atoms: _442  and  _444
REMARK  188  A    between atoms: _444  and  _445
REMARK  189  A    between atoms: _444  and  _447
REMARK  190  A    between atoms: _447  and  _448
REMARK  191  A    between atoms: _454  and  _456
REMARK  192  A    between atoms: _456  and  _457
REMARK  193  A    between atoms: _459  and  _461
REMARK  194  A    between atoms: _461  and  _462
REMARK  195  A    between atoms: _461  and  _464
REMARK  196  A    between atoms: _467  and  _469
REMARK  197  A    between atoms: _469  and  _470
REMARK  198  A    between atoms: _469  and  _472
REMARK  199  A    between atoms: _472  and  _473
REMARK  200  A    between atoms: _478  and  _479
REMARK                            x       y       z     vdW  Elec       q    Type
REMARK                         _______ _______ _______ _____ _____    ______ ____
ROOT
ATOM      1  CA  THR A   1      20.134  41.745  26.309  0.00  0.00    +0.160 C 
ENDROOT
BRANCH   1   2
ATOM      2  N   THR A   1      19.954  43.009  27.024  0.00  0.00    -0.237 NA
ATOM      3  H   THR A   1      19.846  43.877  26.462  0.00  0.00    +0.142 HD
ENDBRANCH   1   2
BRANCH   1   4
ATOM      4  C   THR A   1      21.637  41.409  26.298  0.00  0.00    +0.227 C 
ATOM      5  O   THR A   1      22.471  42.294  26.542  0.00  0.00    -0.287 OA
ENDBRANCH   1   4
BRANCH   1   6
ATOM      6  CB  THR A   1      19.547  41.850  24.903  0.00  0.00    +0.134 C 
ATOM      7  CG2 THR A   1      18.043  42.083  24.911  0.00  0.00    +0.034 C 
BRANCH   6   8
ATOM      8  OG1 THR A   1      20.210  42.869  24.163  0.00  0.00    -0.383 OA
ATOM      9  HG1 THR A   1      21.174  42.652  24.095  0.00  0.00    +0.210 HD
ENDBRANCH   6   8
ENDBRANCH   1   6
TORSDOF 4
REMARK  Name = ../refined-set-2016/4na9/4na9_pocket.pdb
REMARK  200 active torsions:
REMARK  status: ('A' for Active; 'I' for Inactive)
REMARK    1  A    between atoms: _1  and  _5
REMARK    2  A    between atoms: _5  and  _6
REMARK    3  A    between atoms: _5  and  _8
REMARK    4  A    between atoms: _8  and  _9
REMARK    5  A    between atoms: _12  and  _14
REMARK    6  A    between atoms: _14  and  _15
REMARK    7  A    between atoms: _14  and  _17
REMARK    8  A    between atoms: _20  and  _22
REMARK    9  A    between atoms: _22  and  _23
REMARK   10  A    between atoms: _22  and  _25
REMARK   11  A    between atoms: _25  and  _26
REMARK   12  A    between atoms: _26  and  _27
REMARK   13  A    between atoms: _32  and  _34
REMARK   14  A    between atoms: _34  and  _35
REMARK   15  A    between atoms: _34  and  _37
REMARK   16  A    between atoms: _37  and  _38
REMARK   17  A    between atoms: _41  and  _43
REMARK   18  A    between atoms: _43  and  _44
REMARK   19  A    between atoms: _43  and  _46
REMARK   20  A    between atoms: _46  and  _47
REMARK   21  A    between atoms: _47  and  _82
REMARK   22  A    between atoms: _48  and  _50
REMARK   23  A    between atoms: _50  and  _51
REMARK   24  A    between atoms: _53  and  _55
REMARK   25  A    between atoms: _55  and  _56
REMARK   26  A    between atoms: _59  and  _61
REMARK   27  A    between atoms: _61  and  _62
REMARK   28  A    between atoms: _65  and  _67
REMARK   29  A    between atoms: _67  and  _68
REMARK   30  A    between atoms: _67  and  _70
REMARK   31  A    between atoms: _70  and  _71
REMARK   32  A    between atoms: _76  and  _78
REMARK   33  A    between atoms: _78  and  _79
REMARK   34  A    between atoms: _78  and  _81
REMARK   35  A    between atoms: _81  and  _82
REMARK   36  A    between atoms: _83  and  _85
REMARK   37  A    between atoms: _85  and  _86
REMARK   38  A    between atoms: _85  and  _88
REMARK   39  A    between atoms: _88  and  _89
REMARK   40  A    between atoms: _95  and  _97
REMARK   41  A    between atoms: _97  and  _98
REMARK   42  A    between atoms: _97  and  _100
REMARK   43  A    between atoms: _100  and  _101
REMARK   44  A    between atoms: _104  and  _106
REMARK   45  A    between atoms: _106  and  _107
REMARK   46  A    between atoms: _106  and  _109
REMARK   47  A    between atoms: _109  and  _110
REMARK   48  A    between atoms: _110  and  _111
REMARK   49  A    between atoms: _111  and  _112
REMARK   50  A    between atoms: _112  and  _113
REMARK   51  A    between atoms: _117  and  _119
REMARK   52  A    between atoms: _119  and  _120
REMARK   53  A    between atoms: _119  and  _122
REMARK   54  A    between atoms: _122  and  _123
REMARK   55  A    between atoms: _128  and  _129
REMARK   56  A    between atoms: _132  and  _133
REMARK   57  A    between atoms: _138  and  _140
REMARK   58  A    between atoms: _140  and  _141
REMARK   59  A    between atoms: _143  and  _145
REMARK   60  A    between atoms: _145  and  _146
REMARK   61  A    between atoms: _145  and  _148
REMARK   62  A    between atoms: _148  and  _149
REMARK   63  A    between atoms: _152  and  _154
REMARK   64  A    between atoms: _154  and  _155
REMARK   65  A    between atoms: _154  and  _157
REMARK   66  A    between atoms: _157  and  _158
REMARK   67  A    between atoms: _161  and  _163
REMARK   68  A    between atoms: _163  and  _164
REMARK   69  A    between atoms: _163  and  _166
REMARK   70  A    between atoms: _166  and  _167
REMARK   71  A    between atoms: _170  and  _172
REMARK   72  A    between atoms: _172  and  _173
REMARK   73  A    between atoms: _172  and  _175
REMARK   74  A    between atoms: _178  and  _180
REMARK   75  A    between atoms: _180  and  _181
REMARK   76  A    between atoms: _183  and  _185
REMARK   77  A    between atoms: _185  and  _186
REMARK   78  A    between atoms: _185  and  _188
REMARK   79  A    between atoms: _188  and  _189
REMARK   80  A    between atoms: _189  and  _190
REMARK   81  A    between atoms: _195  and  _197
REMARK   82  A    between atoms: _197  and  _198
REMARK   83  A    between atoms: _197  and  _200
REMARK   84  A    between atoms: _200  and  _201
REMARK   85  A    between atoms: _204  and  _206
REMARK   86  A    between atoms: _206  and  _207
REMARK   87  A    between atoms: _206  and  _209
REMARK   88  A    between atoms: _209  and  _210
REMARK   89  A    between atoms: _213  and  _215
REMARK   90  A    between atoms: _215  and  _216
REMARK   91  A    between atoms: _215  and  _218
REMARK   92  A    between atoms: _218  and  _219
REMARK   93  A    between atoms: _219  and  _220
REMARK   94  A    between atoms: _220  and  _221
REMARK   95  A    between atoms: _230  and  _232
REMARK   96  A    between atoms: _232  and  _233
REMARK   97  A    between atoms: _235  and  _237
REMARK   98  A    between atoms: _237  and  _238
REMARK   99  A    between atoms: _237  and  _240
REMARK  100  A    between atoms: _240  and  _241
REMARK  101  A    between atoms: _244  and  _246
REMARK  102  A    between atoms: _246  and  _247
REMARK  103  A    between atoms: _250  and  _252
REMARK  104  A    between atoms: _252  and  _253
REMARK  105  A    between atoms: _252  and  _255
REMARK  106  A    between atoms: _255  and  _256
REMARK  107  A    between atoms: _261  and  _262
REMARK  108  A    between atoms: _264  and  _266
REMARK  109  A    between atoms: _266  and  _267
REMARK  110  A    between atoms: _266  and  _269
REMARK  111  A    between atoms: _269  and  _270
REMARK  112  A    between atoms: _270  and  _271
REMARK  113  A    between atoms: _271  and  _272
REMARK  114  A    between atoms: _272  and  _273
REMARK  115  A    between atoms: _277  and  _279
REMARK  116  A    between atoms: _279  and  _280
REMARK  117  A    between atoms: _279  and  _282
REMARK  118  A    between atoms: _282  and  _283
REMARK  119  A    between atoms: _286  and  _288
REMARK  120  A    between atoms: _288  and  _289
REMARK  121  A    between atoms: _288  and  _291
REMARK  122  A    between atoms: _291  and  _292
REMARK  123  A    between atoms: _294  and  _296
REMARK  124  A    between atoms: _296  and  _297
REMARK  125  A    between atoms: _296  and  _299
REMARK  126  A    between atoms: _299  and  _300
REMARK  127  A    between atoms: _300  and  _415
REMARK  128  A    between atoms: _301  and  _303
REMARK  129  A    between atoms: _303  and  _304
REMARK  130  A    between atoms: _303  and  _306
REMARK  131  A    between atoms: _306  and  _307
REMARK  132  A    between atoms: _307  and  _308
REMARK  133  A    between atoms: _308  and  _309
REMARK  134  A    between atoms: _309  and  _310
REMARK  135  A    between atoms: _314  and  _316
REMARK  136  A    between atoms: _316  and  _317
REMARK  137  A    between atoms: _319  and  _321
REMARK  138  A    between atoms: _321  and  _322
REMARK  139  A    between atoms: _321  and  _324
REMARK  140  A    between atoms: _324  and  _325
REMARK  141  A    between atoms: _328  and  _330
REMARK  142  A    between atoms: _330  and  _331
REMARK  143  A    between atoms: _330  and  _333
REMARK  144  A    between atoms: _333  and  _334
REMARK  145  A    between atoms: _336  and  _338
REMARK  146  A    between atoms: _338  and  _339
REMARK  147  A    between atoms: _341  and  _343
REMARK  148  A    between atoms: _343  and  _344
REMARK  149  A    between atoms: _346  and  _348
REMARK  150  A    between atoms: _348  and  _349
REMARK  151  A    between atoms: _348  and  _351
REMARK  152  A    between atoms: _351  and  _352
REMARK  153  A    between atoms: _355  and  _357
REMARK  154  A    between atoms: _357  and  _358
REMARK  155  A    between atoms: _357  and  _360
REMARK  156  A    between atoms: _363  and  _365
REMARK  157  A    between atoms: _365  and  _366
REMARK  158  A    between atoms: _365  and  _368
REMARK  159  A    between atoms: _368  and  _369
REMARK  160  A    between atoms: _371  and  _373
REMARK  161  A    between atoms: _373  and  _374
REMARK  162  A    between atoms: _373  and  _376
REMARK  163  A    between atoms: _376  and  _377
REMARK  164  A    between atoms: _387  and  _389
REMARK  165  A    between atoms: _389  and  _390
REMARK  166  A    between atoms: _392  and  _394
REMARK  167  A    between atoms: _394  and  _395
REMARK  168  A    between atoms: _394  and  _397
REMARK  169  A    between atoms: _397  and  _398
REMARK  170  A    between atoms: _398  and  _399
REMARK  171  A    between atoms: _404  and  _406
REMARK  172  A    between atoms: _406  and  _407
REMARK  173  A    between atoms: _409  and  _411
REMARK  174  A    between atoms: _411  and  _412
REMARK  175  A    between atoms: _411  and  _414
REMARK  176  A    between atoms: _414  and  _415
REMARK  177  A    between atoms: _416  and  _418
REMARK  178  A    between atoms: _418  and  _419
REMARK  179  A    between atoms: _422  and  _424
REMARK  180  A    between atoms: _424  and  _425
REMARK  181  A    between atoms: _424  and  _427
REMARK  182  A    between atoms: _427  and  _428
REMARK  183  A    between atoms: _431  and  _433
REMARK  184  A    between atoms: _433  and  _434
REMARK  185  A    between atoms: _433  and  _436
REMARK  186  A    between atoms: _436  and  _437
REMARK  187  A    between atoms: _442  and  _444
REMARK  188  A    between atoms: _444  and  _445
REMARK  189  A    between atoms: _444  and  _447
REMARK  190  A    between atoms: _447  and  _448
REMARK  191  A    between atoms: _454  and  _456
REMARK  192  A    between atoms: _456  and  _457
REMARK  193  A    between atoms: _459  and  _461
REMARK  194  A    between atoms: _461  and  _462
REMARK  195  A    between atoms: _461  and  _464
REMARK  196  A    between atoms: _467  and  _469
REMARK  197  A    between atoms: _469  and  _470
REMARK  198  A    between atoms: _469  and  _472
REMARK  199  A    between atoms: _472  and  _473
REMARK  200  A    between atoms: _478  and  _479
REMARK                            x       y       z     vdW  Elec       q    Type
REMARK                         _______ _______ _______ _____ _____    ______ ____
ROOT
ATOM      1  CA  ALA A   1      10.528  23.904  32.398  0.00  0.00    +0.133 C 
ATOM      2  CB  ALA A   1      11.308  23.506  31.147  0.00  0.00    +0.027 C 
ENDROOT
BRANCH   1   3
ATOM      3  N   ALA A   1       9.164  24.297  32.084  0.00  0.00    -0.239 NA
ATOM      4  H   ALA A   1       8.939  25.308  31.992  0.00  0.00    +0.142 HD
ENDBRANCH   1   3
BRANCH   1   5
ATOM      5  C   ALA A   1      11.198  25.054  33.109  0.00  0.00    +0.224 C 
ATOM      6  O   ALA A   1      10.912  26.223  32.838  0.00  0.00    -0.287 OA
ENDBRANCH   1   5
TORSDOF 2
REMARK  Name = ../refined-set-2016/4na9/4na9_pocket.pdb
REMARK  200 active torsions:
REMARK  status: ('A' for Active; 'I' for Inactive)
REMARK    1  A    between atoms: _1  and  _5
REMARK    2  A    between atoms: _5  and  _6
REMARK    3  A    between atoms: _5  and  _8
REMARK    4  A    between atoms: _8  and  _9
REMARK    5  A    between atoms: _12  and  _14
REMARK    6  A    between atoms: _14  and  _15
REMARK    7  A    between atoms: _14  and  _17
REMARK    8  A    between atoms: _20  and  _22
REMARK    9  A    between atoms: _22  and  _23
REMARK   10  A    between atoms: _22  and  _25
REMARK   11  A    between atoms: _25  and  _26
REMARK   12  A    between atoms: _26  and  _27
REMARK   13  A    between atoms: _32  and  _34
REMARK   14  A    between atoms: _34  and  _35
REMARK   15  A    between atoms: _34  and  _37
REMARK   16  A    between atoms: _37  and  _38
REMARK   17  A    between atoms: _41  and  _43
REMARK   18  A    between atoms: _43  and  _44
REMARK   19  A    between atoms: _43  and  _46
REMARK   20  A    between atoms: _46  and  _47
REMARK   21  A    between atoms: _47  and  _82
REMARK   22  A    between atoms: _48  and  _50
REMARK   23  A    between atoms: _50  and  _51
REMARK   24  A    between atoms: _53  and  _55
REMARK   25  A    between atoms: _55  and  _56
REMARK   26  A    between atoms: _59  and  _61
REMARK   27  A    between atoms: _61  and  _62
REMARK   28  A    between atoms: _65  and  _67
REMARK   29  A    between atoms: _67  and  _68
REMARK   30  A    between atoms: _67  and  _70
REMARK   31  A    between atoms: _70  and  _71
REMARK   32  A    between atoms: _76  and  _78
REMARK   33  A    between atoms: _78  and  _79
REMARK   34  A    between atoms: _78  and  _81
REMARK   35  A    between atoms: _81  and  _82
REMARK   36  A    between atoms: _83  and  _85
REMARK   37  A    between atoms: _85  and  _86
REMARK   38  A    between atoms: _85  and  _88
REMARK   39  A    between atoms: _88  and  _89
REMARK   40  A    between atoms: _95  and  _97
REMARK   41  A    between atoms: _97  and  _98
REMARK   42  A    between atoms: _97  and  _100
REMARK   43  A    between atoms: _100  and  _101
REMARK   44  A    between atoms: _104  and  _106
REMARK   45  A    between atoms: _106  and  _107
REMARK   46  A    between atoms: _106  and  _109
REMARK   47  A    between atoms: _109  and  _110
REMARK   48  A    between atoms: _110  and  _111
REMARK   49  A    between atoms: _111  and  _112
REMARK   50  A    between atoms: _112  and  _113
REMARK   51  A    between atoms: _117  and  _119
REMARK   52  A    between atoms: _119  and  _120
REMARK   53  A    between atoms: _119  and  _122
REMARK   54  A    between atoms: _122  and  _123
REMARK   55  A    between atoms: _128  and  _129
REMARK   56  A    between atoms: _132  and  _133
REMARK   57  A    between atoms: _138  and  _140
REMARK   58  A    between atoms: _140  and  _141
REMARK   59  A    between atoms: _143  and  _145
REMARK   60  A    between atoms: _145  and  _146
REMARK   61  A    between atoms: _145  and  _148
REMARK   62  A    between atoms: _148  and  _149
REMARK   63  A    between atoms: _152  and  _154
REMARK   64  A    between atoms: _154  and  _155
REMARK   65  A    between atoms: _154  and  _157
REMARK   66  A    between atoms: _157  and  _158
REMARK   67  A    between atoms: _161  and  _163
REMARK   68  A    between atoms: _163  and  _164
REMARK   69  A    between atoms: _163  and  _166
REMARK   70  A    between atoms: _166  and  _167
REMARK   71  A    between atoms: _170  and  _172
REMARK   72  A    between atoms: _172  and  _173
REMARK   73  A    between atoms: _172  and  _175
REMARK   74  A    between atoms: _178  and  _180
REMARK   75  A    between atoms: _180  and  _181
REMARK   76  A    between atoms: _183  and  _185
REMARK   77  A    between atoms: _185  and  _186
REMARK   78  A    between atoms: _185  and  _188
REMARK   79  A    between atoms: _188  and  _189
REMARK   80  A    between atoms: _189  and  _190
REMARK   81  A    between atoms: _195  and  _197
REMARK   82  A    between atoms: _197  and  _198
REMARK   83  A    between atoms: _197  and  _200
REMARK   84  A    between atoms: _200  and  _201
REMARK   85  A    between atoms: _204  and  _206
REMARK   86  A    between atoms: _206  and  _207
REMARK   87  A    between atoms: _206  and  _209
REMARK   88  A    between atoms: _209  and  _210
REMARK   89  A    between atoms: _213  and  _215
REMARK   90  A    between atoms: _215  and  _216
REMARK   91  A    between atoms: _215  and  _218
REMARK   92  A    between atoms: _218  and  _219
REMARK   93  A    between atoms: _219  and  _220
REMARK   94  A    between atoms: _220  and  _221
REMARK   95  A    between atoms: _230  and  _232
REMARK   96  A    between atoms: _232  and  _233
REMARK   97  A    between atoms: _235  and  _237
REMARK   98  A    between atoms: _237  and  _238
REMARK   99  A    between atoms: _237  and  _240
REMARK  100  A    between atoms: _240  and  _241
REMARK  101  A    between atoms: _244  and  _246
REMARK  102  A    between atoms: _246  and  _247
REMARK  103  A    between atoms: _250  and  _252
REMARK  104  A    between atoms: _252  and  _253
REMARK  105  A    between atoms: _252  and  _255
REMARK  106  A    between atoms: _255  and  _256
REMARK  107  A    between atoms: _261  and  _262
REMARK  108  A    between atoms: _264  and  _266
REMARK  109  A    between atoms: _266  and  _267
REMARK  110  A    between atoms: _266  and  _269
REMARK  111  A    between atoms: _269  and  _270
REMARK  112  A    between atoms: _270  and  _271
REMARK  113  A    between atoms: _271  and  _272
REMARK  114  A    between atoms: _272  and  _273
REMARK  115  A    between atoms: _277  and  _279
REMARK  116  A    between atoms: _279  and  _280
REMARK  117  A    between atoms: _279  and  _282
REMARK  118  A    between atoms: _282  and  _283
REMARK  119  A    between atoms: _286  and  _288
REMARK  120  A    between atoms: _288  and  _289
REMARK  121  A    between atoms: _288  and  _291
REMARK  122  A    between atoms: _291  and  _292
REMARK  123  A    between atoms: _294  and  _296
REMARK  124  A    between atoms: _296  and  _297
REMARK  125  A    between atoms: _296  and  _299
REMARK  126  A    between atoms: _299  and  _300
REMARK  127  A    between atoms: _300  and  _415
REMARK  128  A    between atoms: _301  and  _303
REMARK  129  A    between atoms: _303  and  _304
REMARK  130  A    between atoms: _303  and  _306
REMARK  131  A    between atoms: _306  and  _307
REMARK  132  A    between atoms: _307  and  _308
REMARK  133  A    between atoms: _308  and  _309
REMARK  134  A    between atoms: _309  and  _310
REMARK  135  A    between atoms: _314  and  _316
REMARK  136  A    between atoms: _316  and  _317
REMARK  137  A    between atoms: _319  and  _321
REMARK  138  A    between atoms: _321  and  _322
REMARK  139  A    between atoms: _321  and  _324
REMARK  140  A    between atoms: _324  and  _325
REMARK  141  A    between atoms: _328  and  _330
REMARK  142  A    between atoms: _330  and  _331
REMARK  143  A    between atoms: _330  and  _333
REMARK  144  A    between atoms: _333  and  _334
REMARK  145  A    between atoms: _336  and  _338
REMARK  146  A    between atoms: _338  and  _339
REMARK  147  A    between atoms: _341  and  _343
REMARK  148  A    between atoms: _343  and  _344
REMARK  149  A    between atoms: _346  and  _348
REMARK  150  A    between atoms: _348  and  _349
REMARK  151  A    between atoms: _348  and  _351
REMARK  152  A    between atoms: _351  and  _352
REMARK  153  A    between atoms: _355  and  _357
REMARK  154  A    between atoms: _357  and  _358
REMARK  155  A    between atoms: _357  and  _360
REMARK  156  A    between atoms: _363  and  _365
REMARK  157  A    between atoms: _365  and  _366
REMARK  158  A    between atoms: _365  and  _368
REMARK  159  A    between atoms: _368  and  _369
REMARK  160  A    between atoms: _371  and  _373
REMARK  161  A    between atoms: _373  and  _374
REMARK  162  A    between atoms: _373  and  _376
REMARK  163  A    between atoms: _376  and  _377
REMARK  164  A    between atoms: _387  and  _389
REMARK  165  A    between atoms: _389  and  _390
REMARK  166  A    between atoms: _392  and  _394
REMARK  167  A    between atoms: _394  and  _395
REMARK  168  A    between atoms: _394  and  _397
REMARK  169  A    between atoms: _397  and  _398
REMARK  170  A    between atoms: _398  and  _399
REMARK  171  A    between atoms: _404  and  _406
REMARK  172  A    between atoms: _406  and  _407
REMARK  173  A    between atoms: _409  and  _411
REMARK  174  A    between atoms: _411  and  _412
REMARK  175  A    between atoms: _411  and  _414
REMARK  176  A    between atoms: _414  and  _415
REMARK  177  A    between atoms: _416  and  _418
REMARK  178  A    between atoms: _418  and  _419
REMARK  179  A    between atoms: _422  and  _424
REMARK  180  A    between atoms: _424  and  _425
REMARK  181  A    between atoms: _424  and  _427
REMARK  182  A    between atoms: _427  and  _428
REMARK  183  A    between atoms: _431  and  _433
REMARK  184  A    between atoms: _433  and  _434
REMARK  185  A    between atoms: _433  and  _436
REMARK  186  A    between atoms: _436  and  _437
REMARK  187  A    between atoms: _442  and  _444
REMARK  188  A    between atoms: _444  and  _445
REMARK  189  A    between atoms: _444  and  _447
REMARK  190  A    between atoms: _447  and  _448
REMARK  191  A    between atoms: _454  and  _456
REMARK  192  A    between atoms: _456  and  _457
REMARK  193  A    between atoms: _459  and  _461
REMARK  194  A    between atoms: _461  and  _462
REMARK  195  A    between atoms: _461  and  _464
REMARK  196  A    between atoms: _467  and  _469
REMARK  197  A    between atoms: _469  and  _470
REMARK  198  A    between atoms: _469  and  _472
REMARK  199  A    between atoms: _472  and  _473
REMARK  200  A    between atoms: _478  and  _479
REMARK                            x       y       z     vdW  Elec       q    Type
REMARK                         _______ _______ _______ _____ _____    ______ ____
ROOT
ATOM      1  CG  TYR A   1      15.383  26.318  38.227  0.00  0.00    -0.020 A 
ATOM      2  CD2 TYR A   1      15.864  25.266  39.001  0.00  0.00    -0.001 A 
ATOM      3  CE2 TYR A   1      16.840  24.393  38.513  0.00  0.00    +0.036 A 
ATOM      4  CZ  TYR A   1      17.361  24.586  37.245  0.00  0.00    +0.134 A 
ATOM      5  CE1 TYR A   1      16.905  25.634  36.461  0.00  0.00    +0.036 A 
ATOM      6  CD1 TYR A   1      15.921  26.491  36.954  0.00  0.00    -0.001 A 
ENDROOT
BRANCH   4   7
ATOM      7  OH  TYR A   1      18.328  23.740  36.767  0.00  0.00    -0.506 OA
ATOM      8  HH  TYR A   1      18.586  24.019  35.853  0.00  0.00    +0.292 HD
ENDBRANCH   4   7
BRANCH   1   9
ATOM      9  CB  TYR A   1      14.308  27.247  38.753  0.00  0.00    +0.051 C 
BRANCH   9  10
ATOM     10  CA  TYR A   1      12.863  26.834  38.374  0.00  0.00    +0.137 C 
BRANCH  10  11
ATOM     11  N   TYR A   1      12.765  26.740  36.929  0.00  0.00    -0.239 NA
ATOM     12  H   TYR A   1      12.700  27.627  36.390  0.00  0.00    +0.142 HD
ENDBRANCH  10  11
BRANCH  10  13
ATOM     13  C   TYR A   1      11.877  27.871  38.903  0.00  0.00    +0.224 C 
ATOM     14  O   TYR A   1      11.719  28.939  38.301  0.00  0.00    -0.287 OA
ENDBRANCH  10  13
ENDBRANCH   9  10
ENDBRANCH   1   9
TORSDOF 5
REMARK  Name = ../refined-set-2016/4na9/4na9_pocket.pdb
REMARK  200 active torsions:
REMARK  status: ('A' for Active; 'I' for Inactive)
REMARK    1  A    between atoms: _1  and  _5
REMARK    2  A    between atoms: _5  and  _6
REMARK    3  A    between atoms: _5  and  _8
REMARK    4  A    between atoms: _8  and  _9
REMARK    5  A    between atoms: _12  and  _14
REMARK    6  A    between atoms: _14  and  _15
REMARK    7  A    between atoms: _14  and  _17
REMARK    8  A    between atoms: _20  and  _22
REMARK    9  A    between atoms: _22  and  _23
REMARK   10  A    between atoms: _22  and  _25
REMARK   11  A    between atoms: _25  and  _26
REMARK   12  A    between atoms: _26  and  _27
REMARK   13  A    between atoms: _32  and  _34
REMARK   14  A    between atoms: _34  and  _35
REMARK   15  A    between atoms: _34  and  _37
REMARK   16  A    between atoms: _37  and  _38
REMARK   17  A    between atoms: _41  and  _43
REMARK   18  A    between atoms: _43  and  _44
REMARK   19  A    between atoms: _43  and  _46
REMARK   20  A    between atoms: _46  and  _47
REMARK   21  A    between atoms: _47  and  _82
REMARK   22  A    between atoms: _48  and  _50
REMARK   23  A    between atoms: _50  and  _51
REMARK   24  A    between atoms: _53  and  _55
REMARK   25  A    between atoms: _55  and  _56
REMARK   26  A    between atoms: _59  and  _61
REMARK   27  A    between atoms: _61  and  _62
REMARK   28  A    between atoms: _65  and  _67
REMARK   29  A    between atoms: _67  and  _68
REMARK   30  A    between atoms: _67  and  _70
REMARK   31  A    between atoms: _70  and  _71
REMARK   32  A    between atoms: _76  and  _78
REMARK   33  A    between atoms: _78  and  _79
REMARK   34  A    between atoms: _78  and  _81
REMARK   35  A    between atoms: _81  and  _82
REMARK   36  A    between atoms: _83  and  _85
REMARK   37  A    between atoms: _85  and  _86
REMARK   38  A    between atoms: _85  and  _88
REMARK   39  A    between atoms: _88  and  _89
REMARK   40  A    between atoms: _95  and  _97
REMARK   41  A    between atoms: _97  and  _98
REMARK   42  A    between atoms: _97  and  _100
REMARK   43  A    between atoms: _100  and  _101
REMARK   44  A    between atoms: _104  and  _106
REMARK   45  A    between atoms: _106  and  _107
REMARK   46  A    between atoms: _106  and  _109
REMARK   47  A    between atoms: _109  and  _110
REMARK   48  A    between atoms: _110  and  _111
REMARK   49  A    between atoms: _111  and  _112
REMARK   50  A    between atoms: _112  and  _113
REMARK   51  A    between atoms: _117  and  _119
REMARK   52  A    between atoms: _119  and  _120
REMARK   53  A    between atoms: _119  and  _122
REMARK   54  A    between atoms: _122  and  _123
REMARK   55  A    between atoms: _128  and  _129
REMARK   56  A    between atoms: _132  and  _133
REMARK   57  A    between atoms: _138  and  _140
REMARK   58  A    between atoms: _140  and  _141
REMARK   59  A    between atoms: _143  and  _145
REMARK   60  A    between atoms: _145  and  _146
REMARK   61  A    between atoms: _145  and  _148
REMARK   62  A    between atoms: _148  and  _149
REMARK   63  A    between atoms: _152  and  _154
REMARK   64  A    between atoms: _154  and  _155
REMARK   65  A    between atoms: _154  and  _157
REMARK   66  A    between atoms: _157  and  _158
REMARK   67  A    between atoms: _161  and  _163
REMARK   68  A    between atoms: _163  and  _164
REMARK   69  A    between atoms: _163  and  _166
REMARK   70  A    between atoms: _166  and  _167
REMARK   71  A    between atoms: _170  and  _172
REMARK   72  A    between atoms: _172  and  _173
REMARK   73  A    between atoms: _172  and  _175
REMARK   74  A    between atoms: _178  and  _180
REMARK   75  A    between atoms: _180  and  _181
REMARK   76  A    between atoms: _183  and  _185
REMARK   77  A    between atoms: _185  and  _186
REMARK   78  A    between atoms: _185  and  _188
REMARK   79  A    between atoms: _188  and  _189
REMARK   80  A    between atoms: _189  and  _190
REMARK   81  A    between atoms: _195  and  _197
REMARK   82  A    between atoms: _197  and  _198
REMARK   83  A    between atoms: _197  and  _200
REMARK   84  A    between atoms: _200  and  _201
REMARK   85  A    between atoms: _204  and  _206
REMARK   86  A    between atoms: _206  and  _207
REMARK   87  A    between atoms: _206  and  _209
REMARK   88  A    between atoms: _209  and  _210
REMARK   89  A    between atoms: _213  and  _215
REMARK   90  A    between atoms: _215  and  _216
REMARK   91  A    between atoms: _215  and  _218
REMARK   92  A    between atoms: _218  and  _219
REMARK   93  A    between atoms: _219  and  _220
REMARK   94  A    between atoms: _220  and  _221
REMARK   95  A    between atoms: _230  and  _232
REMARK   96  A    between atoms: _232  and  _233
REMARK   97  A    between atoms: _235  and  _237
REMARK   98  A    between atoms: _237  and  _238
REMARK   99  A    between atoms: _237  and  _240
REMARK  100  A    between atoms: _240  and  _241
REMARK  101  A    between atoms: _244  and  _246
REMARK  102  A    between atoms: _246  and  _247
REMARK  103  A    between atoms: _250  and  _252
REMARK  104  A    between atoms: _252  and  _253
REMARK  105  A    between atoms: _252  and  _255
REMARK  106  A    between atoms: _255  and  _256
REMARK  107  A    between atoms: _261  and  _262
REMARK  108  A    between atoms: _264  and  _266
REMARK  109  A    between atoms: _266  and  _267
REMARK  110  A    between atoms: _266  and  _269
REMARK  111  A    between atoms: _269  and  _270
REMARK  112  A    between atoms: _270  and  _271
REMARK  113  A    between atoms: _271  and  _272
REMARK  114  A    between atoms: _272  and  _273
REMARK  115  A    between atoms: _277  and  _279
REMARK  116  A    between atoms: _279  and  _280
REMARK  117  A    between atoms: _279  and  _282
REMARK  118  A    between atoms: _282  and  _283
REMARK  119  A    between atoms: _286  and  _288
REMARK  120  A    between atoms: _288  and  _289
REMARK  121  A    between atoms: _288  and  _291
REMARK  122  A    between atoms: _291  and  _292
REMARK  123  A    between atoms: _294  and  _296
REMARK  124  A    between atoms: _296  and  _297
REMARK  125  A    between atoms: _296  and  _299
REMARK  126  A    between atoms: _299  and  _300
REMARK  127  A    between atoms: _300  and  _415
REMARK  128  A    between atoms: _301  and  _303
REMARK  129  A    between atoms: _303  and  _304
REMARK  130  A    between atoms: _303  and  _306
REMARK  131  A    between atoms: _306  and  _307
REMARK  132  A    between atoms: _307  and  _308
REMARK  133  A    between atoms: _308  and  _309
REMARK  134  A    between atoms: _309  and  _310
REMARK  135  A    between atoms: _314  and  _316
REMARK  136  A    between atoms: _316  and  _317
REMARK  137  A    between atoms: _319  and  _321
REMARK  138  A    between atoms: _321  and  _322
REMARK  139  A    between atoms: _321  and  _324
REMARK  140  A    between atoms: _324  and  _325
REMARK  141  A    between atoms: _328  and  _330
REMARK  142  A    between atoms: _330  and  _331
REMARK  143  A    between atoms: _330  and  _333
REMARK  144  A    between atoms: _333  and  _334
REMARK  145  A    between atoms: _336  and  _338
REMARK  146  A    between atoms: _338  and  _339
REMARK  147  A    between atoms: _341  and  _343
REMARK  148  A    between atoms: _343  and  _344
REMARK  149  A    between atoms: _346  and  _348
REMARK  150  A    between atoms: _348  and  _349
REMARK  151  A    between atoms: _348  and  _351
REMARK  152  A    between atoms: _351  and  _352
REMARK  153  A    between atoms: _355  and  _357
REMARK  154  A    between atoms: _357  and  _358
REMARK  155  A    between atoms: _357  and  _360
REMARK  156  A    between atoms: _363  and  _365
REMARK  157  A    between atoms: _365  and  _366
REMARK  158  A    between atoms: _365  and  _368
REMARK  159  A    between atoms: _368  and  _369
REMARK  160  A    between atoms: _371  and  _373
REMARK  161  A    between atoms: _373  and  _374
REMARK  162  A    between atoms: _373  and  _376
REMARK  163  A    between atoms: _376  and  _377
REMARK  164  A    between atoms: _387  and  _389
REMARK  165  A    between atoms: _389  and  _390
REMARK  166  A    between atoms: _392  and  _394
REMARK  167  A    between atoms: _394  and  _395
REMARK  168  A    between atoms: _394  and  _397
REMARK  169  A    between atoms: _397  and  _398
REMARK  170  A    between atoms: _398  and  _399
REMARK  171  A    between atoms: _404  and  _406
REMARK  172  A    between atoms: _406  and  _407
REMARK  173  A    between atoms: _409  and  _411
REMARK  174  A    between atoms: _411  and  _412
REMARK  175  A    between atoms: _411  and  _414
REMARK  176  A    between atoms: _414  and  _415
REMARK  177  A    between atoms: _416  and  _418
REMARK  178  A    between atoms: _418  and  _419
REMARK  179  A    between atoms: _422  and  _424
REMARK  180  A    between atoms: _424  and  _425
REMARK  181  A    between atoms: _424  and  _427
REMARK  182  A    between atoms: _427  and  _428
REMARK  183  A    between atoms: _431  and  _433
REMARK  184  A    between atoms: _433  and  _434
REMARK  185  A    between atoms: _433  and  _436
REMARK  186  A    between atoms: _436  and  _437
REMARK  187  A    between atoms: _442  and  _444
REMARK  188  A    between atoms: _444  and  _445
REMARK  189  A    between atoms: _444  and  _447
REMARK  190  A    between atoms: _447  and  _448
REMARK  191  A    between atoms: _454  and  _456
REMARK  192  A    between atoms: _456  and  _457
REMARK  193  A    between atoms: _459  and  _461
REMARK  194  A    between atoms: _461  and  _462
REMARK  195  A    between atoms: _461  and  _464
REMARK  196  A    between atoms: _467  and  _469
REMARK  197  A    between atoms: _469  and  _470
REMARK  198  A    between atoms: _469  and  _472
REMARK  199  A    between atoms: _472  and  _473
REMARK  200  A    between atoms: _478  and  _479
REMARK                            x       y       z     vdW  Elec       q    Type
REMARK                         _______ _______ _______ _____ _____    ______ ____
ROOT
ATOM      1  CB  SER A   8      12.520  36.785  32.932  0.00  0.00    +0.098 C 
ENDROOT
BRANCH   1   2
ATOM      2  SG  SER A   8      11.907  37.400  31.355  0.00  0.00    -0.080 S 
BRANCH   2   3
ATOM      3  SG  TRP A   4      13.628  38.102  30.529  0.00  0.00    -0.080 S 
BRANCH   3   4
ATOM      4  CB  TRP A   4      14.439  36.646  29.782  0.00  0.00    +0.098 C 
BRANCH   4   5
ATOM      5  CA  TRP A   4      13.512  35.723  28.978  0.00  0.00    +0.160 C 
BRANCH   5   8
ATOM      6  C   SER A   3      13.969  33.467  29.740  0.00  0.00    +0.243 C 
ATOM      7  O   SER A   3      13.221  33.649  30.720  0.00  0.00    -0.273 OA
ATOM      8  N   TRP A   4      14.159  34.411  28.816  0.00  0.00    -0.296 N 
ATOM      9  H   TRP A   4      14.759  34.221  27.988  0.00  0.00    +0.150 HD
BRANCH   6  10
ATOM     10  CA  SER A   3      14.742  32.114  29.591  0.00  0.00    +0.178 C 
BRANCH  10  13
ATOM     11  C   VAL A   2      15.299  31.644  31.898  0.00  0.00    +0.241 C 
ATOM     12  O   VAL A   2      16.343  32.289  31.817  0.00  0.00    -0.273 OA
ATOM     13  N   SER A   3      14.489  31.431  30.848  0.00  0.00    -0.295 N 
ATOM     14  H   SER A   3      13.683  30.779  30.935  0.00  0.00    +0.150 HD
BRANCH  11  15
ATOM     15  CA  VAL A   2      14.855  31.112  33.230  0.00  0.00    +0.160 C 
BRANCH  15  18
ATOM     16  C   ILE A   1      15.878  30.646  35.408  0.00  0.00    +0.238 C 
ATOM     17  O   ILE A   1      14.918  29.955  35.766  0.00  0.00    -0.274 OA
ATOM     18  N   VAL A   2      15.965  31.208  34.192  0.00  0.00    -0.297 N 
ATOM     19  H   VAL A   2      16.830  31.719  33.925  0.00  0.00    +0.150 HD
BRANCH  16  20
ATOM     20  CA  ILE A   1      17.069  30.802  36.321  0.00  0.00    +0.145 C 
BRANCH  20  21
ATOM     21  N   ILE A   1      16.698  31.193  37.678  0.00  0.00    -0.238 NA
ATOM     22  H   ILE A   1      15.882  30.735  38.132  0.00  0.00    +0.142 HD
ENDBRANCH  20  21
BRANCH  20  23
ATOM     23  CB  ILE A   1      17.823  29.467  36.390  0.00  0.00    +0.026 C 
BRANCH  23  24
ATOM     24  CG  ILE A   1      19.173  29.492  37.109  0.00  0.00    -0.000 C 
BRANCH  24  25
ATOM     25  CD  ILE A   1      19.682  28.060  37.314  0.00  0.00    -0.024 C 
BRANCH  25  26
ATOM     26  CE  ILE A   1      20.225  27.786  38.701  0.00  0.00    -0.086 C 
BRANCH  26  27
ATOM     27  NZ  ILE A   1      19.169  27.763  39.751  0.00  0.00    +0.380 N 
ATOM     28  HZ1 ILE A   1      19.605  27.571  40.675  0.00  0.00    -0.089 HD
ATOM     29  HZ2 ILE A   1      18.688  28.685  39.778  0.00  0.00    -0.089 HD
ATOM     30  HZ3 ILE A   1      18.479  27.017  39.530  0.00  0.00    -0.089 HD
ENDBRANCH  26  27
ENDBRANCH  25  26
ENDBRANCH  24  25
ENDBRANCH  23  24
ENDBRANCH  20  23
ENDBRANCH  16  20
ENDBRANCH  15  18
BRANCH  15  31
ATOM     31  CB  VAL A   2      13.679  32.014  33.734  0.00  0.00    +0.143 C 
BRANCH  31  32
ATOM     32  CG  VAL A   2      12.277  31.737  33.174  0.00  0.00    +0.367 C 
ATOM     33  OD2 VAL A   2      11.333  32.458  33.573  0.00  0.00    -0.246 OA
ATOM     34  OD1 VAL A   2      12.139  30.844  32.264  0.00  0.00    -0.246 OA
ENDBRANCH  31  32
ENDBRANCH  15  31
ENDBRANCH  11  15
ENDBRANCH  10  13
BRANCH  10  35
ATOM     35  CB  SER A   3      14.273  31.286  28.390  0.00  0.00    +0.166 C 
BRANCH  35  36
ATOM     36  OG  SER A   3      12.965  30.777  28.567  0.00  0.00    -0.380 OA
ATOM     37  H   SER A   3      12.944  30.196  29.368  0.00  0.00    +0.211 HD
ENDBRANCH  35  36
ENDBRANCH  10  35
ENDBRANCH   6  10
ENDBRANCH   5   8
BRANCH   5  38
ATOM     38  C   TRP A   4      13.120  36.331  27.636  0.00  0.00    +0.242 C 
ATOM     39  N   LYS A   5      12.627  37.598  27.609  0.00  0.00    -0.297 N 
ATOM     40  H   LYS A   5      12.466  38.101  28.505  0.00  0.00    +0.150 HD
ATOM     41  O   TRP A   4      13.272  35.662  26.612  0.00  0.00    -0.273 OA
BRANCH  39  42
ATOM     42  CA  LYS A   5      12.317  38.271  26.344  0.00  0.00    +0.149 C 
BRANCH  42  43
ATOM     43  C   LYS A   5      13.596  38.337  25.515  0.00  0.00    +0.241 C 
ATOM     44  O   LYS A   5      14.691  38.497  26.069  0.00  0.00    -0.273 OA
ATOM     45  N   GLY A   6      13.458  38.188  24.206  0.00  0.00    -0.295 N 
ATOM     46  H   GLY A   6      12.500  38.084  23.814  0.00  0.00    +0.150 HD
BRANCH  45  47
ATOM     47  CA  GLY A   6      14.592  38.164  23.293  0.00  0.00    +0.176 C 
BRANCH  47  48
ATOM     48  C   GLY A   6      15.084  36.765  23.030  0.00  0.00    +0.243 C 
ATOM     49  N   ASP A   7      14.748  35.800  23.930  0.00  0.00    -0.296 N 
ATOM     50  H   ASP A   7      14.223  36.074  24.785  0.00  0.00    +0.150 HD
ATOM     51  O   GLY A   6      15.785  36.554  22.034  0.00  0.00    -0.273 OA
BRANCH  49  52
ATOM     52  CA  ASP A   7      15.102  34.378  23.738  0.00  0.00    +0.160 C 
BRANCH  52  53
ATOM     53  C   ASP A   7      13.981  33.636  22.974  0.00  0.00    +0.241 C 
ATOM     54  N   SER A   8      12.759  34.226  22.902  0.00  0.00    -0.295 N 
ATOM     55  H   SER A   8      12.635  35.158  23.347  0.00  0.00    +0.150 HD
ATOM     56  O   ASP A   7      14.225  32.540  22.472  0.00  0.00    -0.273 OA
BRANCH  54  57
ATOM     57  CA  SER A   8      11.602  33.617  22.229  0.00  0.00    +0.178 C 
BRANCH  57  58
ATOM     58  C   SER A   8      11.999  33.063  20.885  0.00  0.00    +0.243 C 
ATOM     59  N   GLY A   9      11.506  31.872  20.572  0.00  0.00    -0.295 N 
ATOM     60  H   GLY A   9      10.887  31.388  21.253  0.00  0.00    +0.150 HD
ATOM     61  O   SER A   8      12.726  33.717  20.149  0.00  0.00    -0.273 OA
BRANCH  59  62
ATOM     62  CA  GLY A   9      11.805  31.220  19.300  0.00  0.00    +0.176 C 
BRANCH  62  63
ATOM     63  C   GLY A   9      12.991  30.295  19.356  0.00  0.00    +0.243 C 
ATOM     64  N   GLY A  10      13.830  30.478  20.378  0.00  0.00    -0.296 N 
ATOM     65  H   GLY A  10      13.596  31.198  21.091  0.00  0.00    +0.150 HD
ATOM     66  O   GLY A   9      13.157  29.449  18.471  0.00  0.00    -0.273 OA
BRANCH  64  67
ATOM     67  CA  GLY A  10      15.053  29.717  20.538  0.00  0.00    +0.163 C 
BRANCH  67  68
ATOM     68  C   GLY A  10      14.815  28.273  20.946  0.00  0.00    +0.229 C 
ATOM     69  O   GLY A  10      13.718  27.923  21.419  0.00  0.00    -0.286 OA
ENDBRANCH  67  68
ENDBRANCH  64  67
ENDBRANCH  62  63
ENDBRANCH  59  62
ENDBRANCH  57  58
BRANCH  57  70
ATOM     70  CB  SER A   8      10.510  34.647  22.008  0.00  0.00    +0.166 C 
BRANCH  70  71
ATOM     71  OG  SER A   8      10.023  35.142  23.249  0.00  0.00    -0.380 OA
ATOM     72  H   SER A   8       9.313  35.811  23.080  0.00  0.00    +0.211 HD
ENDBRANCH  70  71
ENDBRANCH  57  70
ENDBRANCH  54  57
ENDBRANCH  52  53
BRANCH  52  73
ATOM     73  CB  ASP A   7      15.320  33.658  25.078  0.00  0.00    +0.143 C 
BRANCH  73  74
ATOM     74  CG  ASP A   7      16.498  34.160  25.887  0.00  0.00    +0.367 C 
ATOM     75  OD2 ASP A   7      16.374  34.246  27.105  0.00  0.00    -0.246 OA
ATOM     76  OD1 ASP A   7      17.541  34.467  25.290  0.00  0.00    -0.246 OA
ENDBRANCH  73  74
ENDBRANCH  52  73
ENDBRANCH  49  52
ENDBRANCH  47  48
ENDBRANCH  45  47
ENDBRANCH  42  43
BRANCH  42  77
ATOM     77  CB  LYS A   5      11.805  39.699  26.556  0.00  0.00    +0.029 C 
BRANCH  77  78
ATOM     78  CG  LYS A   5      10.417  39.844  27.150  0.00  0.00    +0.000 C 
BRANCH  78  79
ATOM     79  CD  LYS A   5       9.988  41.334  27.023  0.00  0.00    -0.024 C 
BRANCH  79  80
ATOM     80  CE  LYS A   5       8.615  41.639  27.585  0.00  0.00    -0.086 C 
BRANCH  80  81
ATOM     81  NZ  LYS A   5       8.304  43.095  27.492  0.00  0.00    +0.380 N 
ATOM     82  HZ1 LYS A   5       9.011  43.634  28.032  0.00  0.00    -0.089 HD
ATOM     83  HZ2 LYS A   5       7.357  43.272  27.885  0.00  0.00    -0.089 HD
ATOM     84  HZ3 LYS A   5       8.328  43.390  26.495  0.00  0.00    -0.089 HD
ENDBRANCH  80  81
ENDBRANCH  79  80
ENDBRANCH  78  79
ENDBRANCH  77  78
ENDBRANCH  42  77
ENDBRANCH  39  42
ENDBRANCH   5  38
ENDBRANCH   4   5
ENDBRANCH   3   4
ENDBRANCH   2   3
ENDBRANCH   1   2
BRANCH   1  85
ATOM     85  CA  SER A   8      11.446  36.180  33.823  0.00  0.00    +0.160 C 
BRANCH  85  86
ATOM     86  N   SER A   8      10.273  37.053  33.969  0.00  0.00    -0.296 N 
ATOM     87  H   SER A   8      10.375  37.939  34.504  0.00  0.00    +0.150 HD
ATOM     88  C   ASP A   7       9.059  36.750  33.433  0.00  0.00    +0.243 C 
ATOM     89  O   ASP A   7       8.849  35.739  32.738  0.00  0.00    -0.273 OA
BRANCH  88  90
ATOM     90  CA  ASP A   7       7.912  37.699  33.735  0.00  0.00    +0.176 C 
BRANCH  90  91
ATOM     91  N   ASP A   7       6.643  37.019  33.494  0.00  0.00    -0.295 N 
ATOM     92  C   GLY A   6       6.198  36.021  34.253  0.00  0.00    +0.241 C 
ATOM     93  O   GLY A   6       6.823  35.573  35.214  0.00  0.00    -0.273 OA
ATOM     94  H   ASP A   7       6.059  37.329  32.691  0.00  0.00    +0.150 HD
BRANCH  92  95
ATOM     95  CA  GLY A   6       4.918  35.335  33.786  0.00  0.00    +0.149 C 
BRANCH  95  96
ATOM     96  N   GLY A   6       5.346  34.135  33.041  0.00  0.00    -0.297 N 
ATOM     97  H   GLY A   6       5.522  33.254  33.566  0.00  0.00    +0.150 HD
ATOM     98  C   LYS A   5       5.515  34.141  31.717  0.00  0.00    +0.243 C 
ATOM     99  O   LYS A   5       5.274  35.128  31.024  0.00  0.00    -0.273 OA
BRANCH  98 100
ATOM    100  CA  LYS A   5       6.023  32.876  31.056  0.00  0.00    +0.176 C 
BRANCH 100 101
ATOM    101  N   LYS A   5       5.942  33.022  29.604  0.00  0.00    -0.295 N 
ATOM    102  H   LYS A   5       5.388  33.825  29.242  0.00  0.00    +0.150 HD
ATOM    103  C   TRP A   4       6.504  32.233  28.708  0.00  0.00    +0.241 C 
ATOM    104  O   TRP A   4       7.224  31.284  28.996  0.00  0.00    -0.273 OA
BRANCH 103 105
ATOM    105  CA  TRP A   4       6.247  32.591  27.242  0.00  0.00    +0.153 C 
BRANCH 105 106
ATOM    106  N   TRP A   4       6.754  31.575  26.292  0.00  0.00    -0.297 N 
ATOM    107  H   TRP A   4       6.877  30.594  26.614  0.00  0.00    +0.150 HD
ATOM    108  C   SER A   3       7.061  31.897  25.013  0.00  0.00    +0.243 C 
ATOM    109  O   SER A   3       6.938  33.034  24.550  0.00  0.00    -0.273 OA
BRANCH 108 110
ATOM    110  CA  SER A   3       7.537  30.784  24.093  0.00  0.00    +0.178 C 
BRANCH 110 111
ATOM    111  N   SER A   3       8.805  30.199  24.498  0.00  0.00    -0.295 N 
ATOM    112  H   SER A   3       8.911  29.788  25.447  0.00  0.00    +0.150 HD
ATOM    113  C   VAL A   2       9.826  30.192  23.652  0.00  0.00    +0.241 C 
ATOM    114  O   VAL A   2       9.757  30.715  22.543  0.00  0.00    -0.273 OA
BRANCH 113 115
ATOM    115  CA  VAL A   2      11.083  29.444  24.084  0.00  0.00    +0.148 C 
BRANCH 115 116
ATOM    116  N   VAL A   2      11.292  28.366  23.079  0.00  0.00    -0.297 N 
ATOM    117  C   ILE A   1      10.341  27.469  22.779  0.00  0.00    +0.238 C 
ATOM    118  O   ILE A   1       9.246  27.429  23.355  0.00  0.00    -0.274 OA
ATOM    119  H   VAL A   2      12.209  28.306  22.592  0.00  0.00    +0.150 HD
BRANCH 117 120
ATOM    120  CA  ILE A   1      10.611  26.481  21.664  0.00  0.00    +0.145 C 
BRANCH 120 121
ATOM    121  CB  ILE A   1       9.693  26.824  20.451  0.00  0.00    +0.025 C 
ATOM    122  CG2 ILE A   1      10.003  28.226  19.913  0.00  0.00    +0.002 C 
BRANCH 121 123
ATOM    123  CG1 ILE A   1       9.818  25.737  19.327  0.00  0.00    +0.002 C 
ATOM    124  CD1 ILE A   1       8.670  25.757  18.346  0.00  0.00    +0.000 C 
ENDBRANCH 121 123
ENDBRANCH 120 121
BRANCH 120 125
ATOM    125  N   ILE A   1      10.330  25.147  22.194  0.00  0.00    -0.238 NA
ATOM    126  H   ILE A   1       9.411  25.004  22.659  0.00  0.00    +0.142 HD
ENDBRANCH 120 125
ENDBRANCH 117 120
ENDBRANCH 115 116
BRANCH 115 127
ATOM    127  CB  VAL A   2      12.301  30.404  24.209  0.00  0.00    +0.027 C 
ATOM    128  CG2 VAL A   2      12.043  31.469  25.281  0.00  0.00    +0.002 C 
ATOM    129  CG1 VAL A   2      13.593  29.634  24.513  0.00  0.00    +0.002 C 
ENDBRANCH 115 127
ENDBRANCH 113 115
ENDBRANCH 110 111
BRANCH 110 130
ATOM    130  CB  SER A   3       6.487  29.682  23.940  0.00  0.00    +0.166 C 
BRANCH 130 131
ATOM    131  OG  SER A   3       5.176  30.178  23.686  0.00  0.00    -0.380 OA
ATOM    132  H   SER A   3       4.548  29.418  23.598  0.00  0.00    +0.211 HD
ENDBRANCH 130 131
ENDBRANCH 110 130
ENDBRANCH 108 110
ENDBRANCH 105 106
BRANCH 105 133
ATOM    133  CB  TRP A   4       4.754  32.899  26.974  0.00  0.00    +0.057 C 
BRANCH 133 134
ATOM    134  CG  TRP A   4       3.828  31.749  27.259  0.00  0.00    -0.002 A 
ATOM    135  CD2 TRP A   4       2.985  31.595  28.409  0.00  0.00    +0.013 A 
ATOM    136  CE3 TRP A   4       2.762  32.362  29.565  0.00  0.00    +0.001 A 
ATOM    137  CZ3 TRP A   4       1.862  31.901  30.512  0.00  0.00    +0.000 A 
ATOM    138  CH2 TRP A   4       1.190  30.680  30.342  0.00  0.00    +0.001 A 
ATOM    139  CZ2 TRP A   4       1.385  29.903  29.221  0.00  0.00    +0.017 A 
ATOM    140  CE2 TRP A   4       2.277  30.386  28.251  0.00  0.00    +0.056 A 
ATOM    141  NE1 TRP A   4       2.692  29.830  27.068  0.00  0.00    -0.352 N 
ATOM    142  HE1 TRP A   4       2.371  28.918  26.686  0.00  0.00    +0.166 HD
ATOM    143  CD1 TRP A   4       3.597  30.667  26.470  0.00  0.00    +0.068 A 
ENDBRANCH 133 134
ENDBRANCH 105 133
ENDBRANCH 103 105
ENDBRANCH 100 101
ENDBRANCH  98 100
ENDBRANCH  95  96
BRANCH  95 144
ATOM    144  CB  GLY A   6       3.997  34.958  34.958  0.00  0.00    +0.039 C 
BRANCH 144 145
ATOM    145  CG  GLY A   6       2.685  34.310  34.508  0.00  0.00    +0.087 C 
BRANCH 145 146
ATOM    146  CD  GLY A   6       1.686  34.180  35.630  0.00  0.00    +0.219 C 
ATOM    147  NE2 GLY A   6       1.490  35.253  36.387  0.00  0.00    -0.329 N 
ATOM    148 HE21 GLY A   6       0.776  35.233  37.143  0.00  0.00    +0.145 HD
ATOM    149 HE22 GLY A   6       2.050  36.114  36.224  0.00  0.00    +0.145 HD
ATOM    150  OE1 GLY A   6       1.033  33.142  35.803  0.00  0.00    -0.275 OA
ENDBRANCH 145 146
ENDBRANCH 144 145
ENDBRANCH  95 144
ENDBRANCH  92  95
ENDBRANCH  90  91
ENDBRANCH  88  90
ENDBRANCH  85  86
BRANCH  85 151
ATOM    151  C   SER A   8      11.996  35.859  35.155  0.00  0.00    +0.242 C 
ATOM    152  O   SER A   8      12.325  36.787  35.902  0.00  0.00    -0.273 OA
ATOM    153  N   GLY A   9      12.171  34.550  35.433  0.00  0.00    -0.297 N 
ATOM    154  H   GLY A   9      11.922  33.863  34.693  0.00  0.00    +0.150 HD
BRANCH 153 155
ATOM    155  CA  GLY A   9      12.684  34.029  36.696  0.00  0.00    +0.149 C 
ATOM    156  CB  GLY A   9      14.183  34.295  36.818  0.00  0.00    +0.031 C 
BRANCH 155 157
ATOM    157  C   GLY A   9      11.879  34.656  37.880  0.00  0.00    +0.241 C 
ATOM    158  O   GLY A   9      12.456  35.223  38.813  0.00  0.00    -0.273 OA
ATOM    159  N   GLY A  10      10.532  34.606  37.782  0.00  0.00    -0.296 N 
ATOM    160  H   GLY A  10      10.112  34.191  36.926  0.00  0.00    +0.150 HD
BRANCH 159 161
ATOM    161  CA  GLY A  10       9.641  35.108  38.822  0.00  0.00    +0.164 C 
BRANCH 161 162
ATOM    162  CB  GLY A  10       8.381  35.753  38.215  0.00  0.00    +0.136 C 
ATOM    163  CG2 GLY A  10       7.278  35.976  39.236  0.00  0.00    +0.034 C 
BRANCH 162 164
ATOM    164  OG1 GLY A  10       8.718  37.020  37.645  0.00  0.00    -0.382 OA
ATOM    165  HG1 GLY A  10       7.906  37.432  37.256  0.00  0.00    +0.210 HD
ENDBRANCH 162 164
ENDBRANCH 161 162
BRANCH 161 166
ATOM    166  C   GLY A  10       9.346  33.954  39.767  0.00  0.00    +0.229 C 
ATOM    167  O   GLY A  10       9.095  32.828  39.314  0.00  0.00    -0.286 OA
ENDBRANCH 161 166
ENDBRANCH 159 161
ENDBRANCH 155 157
ENDBRANCH 153 155
ENDBRANCH  85 151
ENDBRANCH   1  85
TORSDOF 75
REMARK  Name = ../refined-set-2016/4na9/4na9_pocket.pdb
REMARK  200 active torsions:
REMARK  status: ('A' for Active; 'I' for Inactive)
REMARK    1  A    between atoms: _1  and  _5
REMARK    2  A    between atoms: _5  and  _6
REMARK    3  A    between atoms: _5  and  _8
REMARK    4  A    between atoms: _8  and  _9
REMARK    5  A    between atoms: _12  and  _14
REMARK    6  A    between atoms: _14  and  _15
REMARK    7  A    between atoms: _14  and  _17
REMARK    8  A    between atoms: _20  and  _22
REMARK    9  A    between atoms: _22  and  _23
REMARK   10  A    between atoms: _22  and  _25
REMARK   11  A    between atoms: _25  and  _26
REMARK   12  A    between atoms: _26  and  _27
REMARK   13  A    between atoms: _32  and  _34
REMARK   14  A    between atoms: _34  and  _35
REMARK   15  A    between atoms: _34  and  _37
REMARK   16  A    between atoms: _37  and  _38
REMARK   17  A    between atoms: _41  and  _43
REMARK   18  A    between atoms: _43  and  _44
REMARK   19  A    between atoms: _43  and  _46
REMARK   20  A    between atoms: _46  and  _47
REMARK   21  A    between atoms: _47  and  _82
REMARK   22  A    between atoms: _48  and  _50
REMARK   23  A    between atoms: _50  and  _51
REMARK   24  A    between atoms: _53  and  _55
REMARK   25  A    between atoms: _55  and  _56
REMARK   26  A    between atoms: _59  and  _61
REMARK   27  A    between atoms: _61  and  _62
REMARK   28  A    between atoms: _65  and  _67
REMARK   29  A    between atoms: _67  and  _68
REMARK   30  A    between atoms: _67  and  _70
REMARK   31  A    between atoms: _70  and  _71
REMARK   32  A    between atoms: _76  and  _78
REMARK   33  A    between atoms: _78  and  _79
REMARK   34  A    between atoms: _78  and  _81
REMARK   35  A    between atoms: _81  and  _82
REMARK   36  A    between atoms: _83  and  _85
REMARK   37  A    between atoms: _85  and  _86
REMARK   38  A    between atoms: _85  and  _88
REMARK   39  A    between atoms: _88  and  _89
REMARK   40  A    between atoms: _95  and  _97
REMARK   41  A    between atoms: _97  and  _98
REMARK   42  A    between atoms: _97  and  _100
REMARK   43  A    between atoms: _100  and  _101
REMARK   44  A    between atoms: _104  and  _106
REMARK   45  A    between atoms: _106  and  _107
REMARK   46  A    between atoms: _106  and  _109
REMARK   47  A    between atoms: _109  and  _110
REMARK   48  A    between atoms: _110  and  _111
REMARK   49  A    between atoms: _111  and  _112
REMARK   50  A    between atoms: _112  and  _113
REMARK   51  A    between atoms: _117  and  _119
REMARK   52  A    between atoms: _119  and  _120
REMARK   53  A    between atoms: _119  and  _122
REMARK   54  A    between atoms: _122  and  _123
REMARK   55  A    between atoms: _128  and  _129
REMARK   56  A    between atoms: _132  and  _133
REMARK   57  A    between atoms: _138  and  _140
REMARK   58  A    between atoms: _140  and  _141
REMARK   59  A    between atoms: _143  and  _145
REMARK   60  A    between atoms: _145  and  _146
REMARK   61  A    between atoms: _145  and  _148
REMARK   62  A    between atoms: _148  and  _149
REMARK   63  A    between atoms: _152  and  _154
REMARK   64  A    between atoms: _154  and  _155
REMARK   65  A    between atoms: _154  and  _157
REMARK   66  A    between atoms: _157  and  _158
REMARK   67  A    between atoms: _161  and  _163
REMARK   68  A    between atoms: _163  and  _164
REMARK   69  A    between atoms: _163  and  _166
REMARK   70  A    between atoms: _166  and  _167
REMARK   71  A    between atoms: _170  and  _172
REMARK   72  A    between atoms: _172  and  _173
REMARK   73  A    between atoms: _172  and  _175
REMARK   74  A    between atoms: _178  and  _180
REMARK   75  A    between atoms: _180  and  _181
REMARK   76  A    between atoms: _183  and  _185
REMARK   77  A    between atoms: _185  and  _186
REMARK   78  A    between atoms: _185  and  _188
REMARK   79  A    between atoms: _188  and  _189
REMARK   80  A    between atoms: _189  and  _190
REMARK   81  A    between atoms: _195  and  _197
REMARK   82  A    between atoms: _197  and  _198
REMARK   83  A    between atoms: _197  and  _200
REMARK   84  A    between atoms: _200  and  _201
REMARK   85  A    between atoms: _204  and  _206
REMARK   86  A    between atoms: _206  and  _207
REMARK   87  A    between atoms: _206  and  _209
REMARK   88  A    between atoms: _209  and  _210
REMARK   89  A    between atoms: _213  and  _215
REMARK   90  A    between atoms: _215  and  _216
REMARK   91  A    between atoms: _215  and  _218
REMARK   92  A    between atoms: _218  and  _219
REMARK   93  A    between atoms: _219  and  _220
REMARK   94  A    between atoms: _220  and  _221
REMARK   95  A    between atoms: _230  and  _232
REMARK   96  A    between atoms: _232  and  _233
REMARK   97  A    between atoms: _235  and  _237
REMARK   98  A    between atoms: _237  and  _238
REMARK   99  A    between atoms: _237  and  _240
REMARK  100  A    between atoms: _240  and  _241
REMARK  101  A    between atoms: _244  and  _246
REMARK  102  A    between atoms: _246  and  _247
REMARK  103  A    between atoms: _250  and  _252
REMARK  104  A    between atoms: _252  and  _253
REMARK  105  A    between atoms: _252  and  _255
REMARK  106  A    between atoms: _255  and  _256
REMARK  107  A    between atoms: _261  and  _262
REMARK  108  A    between atoms: _264  and  _266
REMARK  109  A    between atoms: _266  and  _267
REMARK  110  A    between atoms: _266  and  _269
REMARK  111  A    between atoms: _269  and  _270
REMARK  112  A    between atoms: _270  and  _271
REMARK  113  A    between atoms: _271  and  _272
REMARK  114  A    between atoms: _272  and  _273
REMARK  115  A    between atoms: _277  and  _279
REMARK  116  A    between atoms: _279  and  _280
REMARK  117  A    between atoms: _279  and  _282
REMARK  118  A    between atoms: _282  and  _283
REMARK  119  A    between atoms: _286  and  _288
REMARK  120  A    between atoms: _288  and  _289
REMARK  121  A    between atoms: _288  and  _291
REMARK  122  A    between atoms: _291  and  _292
REMARK  123  A    between atoms: _294  and  _296
REMARK  124  A    between atoms: _296  and  _297
REMARK  125  A    between atoms: _296  and  _299
REMARK  126  A    between atoms: _299  and  _300
REMARK  127  A    between atoms: _300  and  _415
REMARK  128  A    between atoms: _301  and  _303
REMARK  129  A    between atoms: _303  and  _304
REMARK  130  A    between atoms: _303  and  _306
REMARK  131  A    between atoms: _306  and  _307
REMARK  132  A    between atoms: _307  and  _308
REMARK  133  A    between atoms: _308  and  _309
REMARK  134  A    between atoms: _309  and  _310
REMARK  135  A    between atoms: _314  and  _316
REMARK  136  A    between atoms: _316  and  _317
REMARK  137  A    between atoms: _319  and  _321
REMARK  138  A    between atoms: _321  and  _322
REMARK  139  A    between atoms: _321  and  _324
REMARK  140  A    between atoms: _324  and  _325
REMARK  141  A    between atoms: _328  and  _330
REMARK  142  A    between atoms: _330  and  _331
REMARK  143  A    between atoms: _330  and  _333
REMARK  144  A    between atoms: _333  and  _334
REMARK  145  A    between atoms: _336  and  _338
REMARK  146  A    between atoms: _338  and  _339
REMARK  147  A    between atoms: _341  and  _343
REMARK  148  A    between atoms: _343  and  _344
REMARK  149  A    between atoms: _346  and  _348
REMARK  150  A    between atoms: _348  and  _349
REMARK  151  A    between atoms: _348  and  _351
REMARK  152  A    between atoms: _351  and  _352
REMARK  153  A    between atoms: _355  and  _357
REMARK  154  A    between atoms: _357  and  _358
REMARK  155  A    between atoms: _357  and  _360
REMARK  156  A    between atoms: _363  and  _365
REMARK  157  A    between atoms: _365  and  _366
REMARK  158  A    between atoms: _365  and  _368
REMARK  159  A    between atoms: _368  and  _369
REMARK  160  A    between atoms: _371  and  _373
REMARK  161  A    between atoms: _373  and  _374
REMARK  162  A    between atoms: _373  and  _376
REMARK  163  A    between atoms: _376  and  _377
REMARK  164  A    between atoms: _387  and  _389
REMARK  165  A    between atoms: _389  and  _390
REMARK  166  A    between atoms: _392  and  _394
REMARK  167  A    between atoms: _394  and  _395
REMARK  168  A    between atoms: _394  and  _397
REMARK  169  A    between atoms: _397  and  _398
REMARK  170  A    between atoms: _398  and  _399
REMARK  171  A    between atoms: _404  and  _406
REMARK  172  A    between atoms: _406  and  _407
REMARK  173  A    between atoms: _409  and  _411
REMARK  174  A    between atoms: _411  and  _412
REMARK  175  A    between atoms: _411  and  _414
REMARK  176  A    between atoms: _414  and  _415
REMARK  177  A    between atoms: _416  and  _418
REMARK  178  A    between atoms: _418  and  _419
REMARK  179  A    between atoms: _422  and  _424
REMARK  180  A    between atoms: _424  and  _425
REMARK  181  A    between atoms: _424  and  _427
REMARK  182  A    between atoms: _427  and  _428
REMARK  183  A    between atoms: _431  and  _433
REMARK  184  A    between atoms: _433  and  _434
REMARK  185  A    between atoms: _433  and  _436
REMARK  186  A    between atoms: _436  and  _437
REMARK  187  A    between atoms: _442  and  _444
REMARK  188  A    between atoms: _444  and  _445
REMARK  189  A    between atoms: _444  and  _447
REMARK  190  A    between atoms: _447  and  _448
REMARK  191  A    between atoms: _454  and  _456
REMARK  192  A    between atoms: _456  and  _457
REMARK  193  A    between atoms: _459  and  _461
REMARK  194  A    between atoms: _461  and  _462
REMARK  195  A    between atoms: _461  and  _464
REMARK  196  A    between atoms: _467  and  _469
REMARK  197  A    between atoms: _469  and  _470
REMARK  198  A    between atoms: _469  and  _472
REMARK  199  A    between atoms: _472  and  _473
REMARK  200  A    between atoms: _478  and  _479
REMARK                            x       y       z     vdW  Elec       q    Type
REMARK                         _______ _______ _______ _____ _____    ______ ____
ROOT
ATOM      1  C   PHE A   2       8.241  29.024  33.873  0.00  0.00    +0.241 C 
ATOM      2  O   PHE A   2       7.248  29.663  33.529  0.00  0.00    -0.273 OA
ATOM      3  N   GLY A   3       9.264  28.767  33.058  0.00  0.00    -0.295 N 
ATOM      4  H   GLY A   3      10.113  28.305  33.442  0.00  0.00    +0.150 HD
ENDROOT
BRANCH   3   5
ATOM      5  CA  GLY A   3       9.226  29.115  31.644  0.00  0.00    +0.176 C 
BRANCH   5   6
ATOM      6  C   GLY A   3       8.252  28.174  30.940  0.00  0.00    +0.243 C 
ATOM      7  O   GLY A   3       8.097  27.024  31.364  0.00  0.00    -0.273 OA
ATOM      8  N   VAL A   4       7.531  28.660  29.911  0.00  0.00    -0.297 N 
ATOM      9  H   VAL A   4       7.659  29.658  29.649  0.00  0.00    +0.150 HD
BRANCH   8  10
ATOM     10  CA  VAL A   4       6.581  27.861  29.145  0.00  0.00    +0.149 C 
BRANCH  10  11
ATOM     11  C   VAL A   4       7.116  27.728  27.722  0.00  0.00    +0.241 C 
ATOM     12  N   TYR A   5       7.166  26.492  27.227  0.00  0.00    -0.298 N 
ATOM     13  H   TYR A   5       6.728  25.730  27.783  0.00  0.00    +0.150 HD
ATOM     14  O   VAL A   4       7.510  28.714  27.100  0.00  0.00    -0.273 OA
BRANCH  12  15
ATOM     15  CA  TYR A   5       7.792  26.135  25.960  0.00  0.00    +0.141 C 
BRANCH  15  16
ATOM     16  C   TYR A   5       6.788  25.472  25.030  0.00  0.00    +0.227 C 
ATOM     17  O   TYR A   5       5.942  24.721  25.499  0.00  0.00    -0.286 OA
ENDBRANCH  15  16
BRANCH  15  18
ATOM     18  CB  TYR A   5       8.992  25.171  26.254  0.00  0.00    +0.054 C 
BRANCH  18  19
ATOM     19  CG  TYR A   5      10.091  25.827  27.068  0.00  0.00    -0.020 A 
ATOM     20  CD2 TYR A   5      10.028  25.868  28.463  0.00  0.00    -0.001 A 
ATOM     21  CE2 TYR A   5      10.954  26.611  29.211  0.00  0.00    +0.036 A 
ATOM     22  CZ  TYR A   5      11.969  27.299  28.559  0.00  0.00    +0.134 A 
ATOM     23  CE1 TYR A   5      12.028  27.287  27.176  0.00  0.00    +0.036 A 
ATOM     24  CD1 TYR A   5      11.115  26.535  26.446  0.00  0.00    -0.001 A 
BRANCH  22  25
ATOM     25  OH  TYR A   5      12.910  28.024  29.248  0.00  0.00    -0.506 OA
ATOM     26  HH  TYR A   5      12.743  27.940  30.220  0.00  0.00    +0.292 HD
ENDBRANCH  22  25
ENDBRANCH  18  19
ENDBRANCH  15  18
ENDBRANCH  12  15
ENDBRANCH  10  11
BRANCH  10  27
ATOM     27  CB  VAL A   4       5.114  28.352  29.219  0.00  0.00    +0.027 C 
ATOM     28  CG2 VAL A   4       4.706  28.620  30.675  0.00  0.00    +0.002 C 
ATOM     29  CG1 VAL A   4       4.173  27.316  28.613  0.00  0.00    +0.002 C 
ENDBRANCH  10  27
ENDBRANCH   8  10
ENDBRANCH   5   6
ENDBRANCH   3   5
BRANCH   1  30
ATOM     30  CA  PHE A   2       8.320  28.459  35.284  0.00  0.00    +0.153 C 
BRANCH  30  33
ATOM     31  C   HIS A   1       7.767  29.830  37.275  0.00  0.00    +0.239 C 
ATOM     32  O   HIS A   1       8.928  29.917  37.664  0.00  0.00    -0.274 OA
ATOM     33  N   PHE A   2       7.393  29.174  36.153  0.00  0.00    -0.297 N 
ATOM     34  H   PHE A   2       6.386  29.180  35.895  0.00  0.00    +0.150 HD
BRANCH  31  35
ATOM     35  CA  HIS A   1       6.659  30.488  38.053  0.00  0.00    +0.151 C 
BRANCH  35  36
ATOM     36  N   HIS A   1       6.979  30.679  39.473  0.00  0.00    -0.238 NA
ATOM     37  H   HIS A   1       7.830  31.218  39.732  0.00  0.00    +0.142 HD
ENDBRANCH  35  36
BRANCH  35  38
ATOM     38  CB  HIS A   1       6.244  31.807  37.384  0.00  0.00    +0.074 C 
BRANCH  38  39
ATOM     39  CG  HIS A   1       5.065  32.457  38.032  0.00  0.00    +0.082 A 
ATOM     40  CD2 HIS A   1       5.014  33.547  38.827  0.00  0.00    +0.115 A 
ATOM     41  NE2 HIS A   1       3.692  33.732  39.164  0.00  0.00    -0.221 NA
ATOM     42  CE1 HIS A   1       2.999  32.749  38.591  0.00  0.00    +0.199 A 
ATOM     43  ND1 HIS A   1       3.784  31.954  37.882  0.00  0.00    -0.227 NA
ENDBRANCH  38  39
ENDBRANCH  35  38
ENDBRANCH  31  35
ENDBRANCH  30  33
BRANCH  30  44
ATOM     44  CB  PHE A   2       7.929  26.972  35.255  0.00  0.00    +0.055 C 
BRANCH  44  45
ATOM     45  CG  PHE A   2       8.077  26.260  36.580  0.00  0.00    -0.020 A 
ATOM     46  CD2 PHE A   2       7.008  26.170  37.466  0.00  0.00    -0.004 A 
ATOM     47  CE2 PHE A   2       7.143  25.498  38.678  0.00  0.00    -0.000 A 
ATOM     48  CZ  PHE A   2       8.350  24.939  39.018  0.00  0.00    -0.000 A 
ATOM     49  CE1 PHE A   2       9.399  24.971  38.133  0.00  0.00    -0.000 A 
ATOM     50  CD1 PHE A   2       9.264  25.631  36.919  0.00  0.00    -0.004 A 
ENDBRANCH  44  45
ENDBRANCH  30  44
ENDBRANCH   1  30
TORSDOF 18
REMARK  Name = ../refined-set-2016/4na9/4na9_pocket.pdb
REMARK  200 active torsions:
REMARK  status: ('A' for Active; 'I' for Inactive)
REMARK    1  A    between atoms: _1  and  _5
REMARK    2  A    between atoms: _5  and  _6
REMARK    3  A    between atoms: _5  and  _8
REMARK    4  A    between atoms: _8  and  _9
REMARK    5  A    between atoms: _12  and  _14
REMARK    6  A    between atoms: _14  and  _15
REMARK    7  A    between atoms: _14  and  _17
REMARK    8  A    between atoms: _20  and  _22
REMARK    9  A    between atoms: _22  and  _23
REMARK   10  A    between atoms: _22  and  _25
REMARK   11  A    between atoms: _25  and  _26
REMARK   12  A    between atoms: _26  and  _27
REMARK   13  A    between atoms: _32  and  _34
REMARK   14  A    between atoms: _34  and  _35
REMARK   15  A    between atoms: _34  and  _37
REMARK   16  A    between atoms: _37  and  _38
REMARK   17  A    between atoms: _41  and  _43
REMARK   18  A    between atoms: _43  and  _44
REMARK   19  A    between atoms: _43  and  _46
REMARK   20  A    between atoms: _46  and  _47
REMARK   21  A    between atoms: _47  and  _82
REMARK   22  A    between atoms: _48  and  _50
REMARK   23  A    between atoms: _50  and  _51
REMARK   24  A    between atoms: _53  and  _55
REMARK   25  A    between atoms: _55  and  _56
REMARK   26  A    between atoms: _59  and  _61
REMARK   27  A    between atoms: _61  and  _62
REMARK   28  A    between atoms: _65  and  _67
REMARK   29  A    between atoms: _67  and  _68
REMARK   30  A    between atoms: _67  and  _70
REMARK   31  A    between atoms: _70  and  _71
REMARK   32  A    between atoms: _76  and  _78
REMARK   33  A    between atoms: _78  and  _79
REMARK   34  A    between atoms: _78  and  _81
REMARK   35  A    between atoms: _81  and  _82
REMARK   36  A    between atoms: _83  and  _85
REMARK   37  A    between atoms: _85  and  _86
REMARK   38  A    between atoms: _85  and  _88
REMARK   39  A    between atoms: _88  and  _89
REMARK   40  A    between atoms: _95  and  _97
REMARK   41  A    between atoms: _97  and  _98
REMARK   42  A    between atoms: _97  and  _100
REMARK   43  A    between atoms: _100  and  _101
REMARK   44  A    between atoms: _104  and  _106
REMARK   45  A    between atoms: _106  and  _107
REMARK   46  A    between atoms: _106  and  _109
REMARK   47  A    between atoms: _109  and  _110
REMARK   48  A    between atoms: _110  and  _111
REMARK   49  A    between atoms: _111  and  _112
REMARK   50  A    between atoms: _112  and  _113
REMARK   51  A    between atoms: _117  and  _119
REMARK   52  A    between atoms: _119  and  _120
REMARK   53  A    between atoms: _119  and  _122
REMARK   54  A    between atoms: _122  and  _123
REMARK   55  A    between atoms: _128  and  _129
REMARK   56  A    between atoms: _132  and  _133
REMARK   57  A    between atoms: _138  and  _140
REMARK   58  A    between atoms: _140  and  _141
REMARK   59  A    between atoms: _143  and  _145
REMARK   60  A    between atoms: _145  and  _146
REMARK   61  A    between atoms: _145  and  _148
REMARK   62  A    between atoms: _148  and  _149
REMARK   63  A    between atoms: _152  and  _154
REMARK   64  A    between atoms: _154  and  _155
REMARK   65  A    between atoms: _154  and  _157
REMARK   66  A    between atoms: _157  and  _158
REMARK   67  A    between atoms: _161  and  _163
REMARK   68  A    between atoms: _163  and  _164
REMARK   69  A    between atoms: _163  and  _166
REMARK   70  A    between atoms: _166  and  _167
REMARK   71  A    between atoms: _170  and  _172
REMARK   72  A    between atoms: _172  and  _173
REMARK   73  A    between atoms: _172  and  _175
REMARK   74  A    between atoms: _178  and  _180
REMARK   75  A    between atoms: _180  and  _181
REMARK   76  A    between atoms: _183  and  _185
REMARK   77  A    between atoms: _185  and  _186
REMARK   78  A    between atoms: _185  and  _188
REMARK   79  A    between atoms: _188  and  _189
REMARK   80  A    between atoms: _189  and  _190
REMARK   81  A    between atoms: _195  and  _197
REMARK   82  A    between atoms: _197  and  _198
REMARK   83  A    between atoms: _197  and  _200
REMARK   84  A    between atoms: _200  and  _201
REMARK   85  A    between atoms: _204  and  _206
REMARK   86  A    between atoms: _206  and  _207
REMARK   87  A    between atoms: _206  and  _209
REMARK   88  A    between atoms: _209  and  _210
REMARK   89  A    between atoms: _213  and  _215
REMARK   90  A    between atoms: _215  and  _216
REMARK   91  A    between atoms: _215  and  _218
REMARK   92  A    between atoms: _218  and  _219
REMARK   93  A    between atoms: _219  and  _220
REMARK   94  A    between atoms: _220  and  _221
REMARK   95  A    between atoms: _230  and  _232
REMARK   96  A    between atoms: _232  and  _233
REMARK   97  A    between atoms: _235  and  _237
REMARK   98  A    between atoms: _237  and  _238
REMARK   99  A    between atoms: _237  and  _240
REMARK  100  A    between atoms: _240  and  _241
REMARK  101  A    between atoms: _244  and  _246
REMARK  102  A    between atoms: _246  and  _247
REMARK  103  A    between atoms: _250  and  _252
REMARK  104  A    between atoms: _252  and  _253
REMARK  105  A    between atoms: _252  and  _255
REMARK  106  A    between atoms: _255  and  _256
REMARK  107  A    between atoms: _261  and  _262
REMARK  108  A    between atoms: _264  and  _266
REMARK  109  A    between atoms: _266  and  _267
REMARK  110  A    between atoms: _266  and  _269
REMARK  111  A    between atoms: _269  and  _270
REMARK  112  A    between atoms: _270  and  _271
REMARK  113  A    between atoms: _271  and  _272
REMARK  114  A    between atoms: _272  and  _273
REMARK  115  A    between atoms: _277  and  _279
REMARK  116  A    between atoms: _279  and  _280
REMARK  117  A    between atoms: _279  and  _282
REMARK  118  A    between atoms: _282  and  _283
REMARK  119  A    between atoms: _286  and  _288
REMARK  120  A    between atoms: _288  and  _289
REMARK  121  A    between atoms: _288  and  _291
REMARK  122  A    between atoms: _291  and  _292
REMARK  123  A    between atoms: _294  and  _296
REMARK  124  A    between atoms: _296  and  _297
REMARK  125  A    between atoms: _296  and  _299
REMARK  126  A    between atoms: _299  and  _300
REMARK  127  A    between atoms: _300  and  _415
REMARK  128  A    between atoms: _301  and  _303
REMARK  129  A    between atoms: _303  and  _304
REMARK  130  A    between atoms: _303  and  _306
REMARK  131  A    between atoms: _306  and  _307
REMARK  132  A    between atoms: _307  and  _308
REMARK  133  A    between atoms: _308  and  _309
REMARK  134  A    between atoms: _309  and  _310
REMARK  135  A    between atoms: _314  and  _316
REMARK  136  A    between atoms: _316  and  _317
REMARK  137  A    between atoms: _319  and  _321
REMARK  138  A    between atoms: _321  and  _322
REMARK  139  A    between atoms: _321  and  _324
REMARK  140  A    between atoms: _324  and  _325
REMARK  141  A    between atoms: _328  and  _330
REMARK  142  A    between atoms: _330  and  _331
REMARK  143  A    between atoms: _330  and  _333
REMARK  144  A    between atoms: _333  and  _334
REMARK  145  A    between atoms: _336  and  _338
REMARK  146  A    between atoms: _338  and  _339
REMARK  147  A    between atoms: _341  and  _343
REMARK  148  A    between atoms: _343  and  _344
REMARK  149  A    between atoms: _346  and  _348
REMARK  150  A    between atoms: _348  and  _349
REMARK  151  A    between atoms: _348  and  _351
REMARK  152  A    between atoms: _351  and  _352
REMARK  153  A    between atoms: _355  and  _357
REMARK  154  A    between atoms: _357  and  _358
REMARK  155  A    between atoms: _357  and  _360
REMARK  156  A    between atoms: _363  and  _365
REMARK  157  A    between atoms: _365  and  _366
REMARK  158  A    between atoms: _365  and  _368
REMARK  159  A    between atoms: _368  and  _369
REMARK  160  A    between atoms: _371  and  _373
REMARK  161  A    between atoms: _373  and  _374
REMARK  162  A    between atoms: _373  and  _376
REMARK  163  A    between atoms: _376  and  _377
REMARK  164  A    between atoms: _387  and  _389
REMARK  165  A    between atoms: _389  and  _390
REMARK  166  A    between atoms: _392  and  _394
REMARK  167  A    between atoms: _394  and  _395
REMARK  168  A    between atoms: _394  and  _397
REMARK  169  A    between atoms: _397  and  _398
REMARK  170  A    between atoms: _398  and  _399
REMARK  171  A    between atoms: _404  and  _406
REMARK  172  A    between atoms: _406  and  _407
REMARK  173  A    between atoms: _409  and  _411
REMARK  174  A    between atoms: _411  and  _412
REMARK  175  A    between atoms: _411  and  _414
REMARK  176  A    between atoms: _414  and  _415
REMARK  177  A    between atoms: _416  and  _418
REMARK  178  A    between atoms: _418  and  _419
REMARK  179  A    between atoms: _422  and  _424
REMARK  180  A    between atoms: _424  and  _425
REMARK  181  A    between atoms: _424  and  _427
REMARK  182  A    between atoms: _427  and  _428
REMARK  183  A    between atoms: _431  and  _433
REMARK  184  A    between atoms: _433  and  _434
REMARK  185  A    between atoms: _433  and  _436
REMARK  186  A    between atoms: _436  and  _437
REMARK  187  A    between atoms: _442  and  _444
REMARK  188  A    between atoms: _444  and  _445
REMARK  189  A    between atoms: _444  and  _447
REMARK  190  A    between atoms: _447  and  _448
REMARK  191  A    between atoms: _454  and  _456
REMARK  192  A    between atoms: _456  and  _457
REMARK  193  A    between atoms: _459  and  _461
REMARK  194  A    between atoms: _461  and  _462
REMARK  195  A    between atoms: _461  and  _464
REMARK  196  A    between atoms: _467  and  _469
REMARK  197  A    between atoms: _469  and  _470
REMARK  198  A    between atoms: _469  and  _472
REMARK  199  A    between atoms: _472  and  _473
REMARK  200  A    between atoms: _478  and  _479
REMARK                            x       y       z     vdW  Elec       q    Type
REMARK                         _______ _______ _______ _____ _____    ______ ____
ROOT
ATOM      1  O   HOH     1      17.949  34.701  21.062  0.00  0.00    +0.000 OA
ENDROOT
TORSDOF 0
REMARK  Name = ../refined-set-2016/4na9/4na9_pocket.pdb
REMARK  200 active torsions:
REMARK  status: ('A' for Active; 'I' for Inactive)
REMARK    1  A    between atoms: _1  and  _5
REMARK    2  A    between atoms: _5  and  _6
REMARK    3  A    between atoms: _5  and  _8
REMARK    4  A    between atoms: _8  and  _9
REMARK    5  A    between atoms: _12  and  _14
REMARK    6  A    between atoms: _14  and  _15
REMARK    7  A    between atoms: _14  and  _17
REMARK    8  A    between atoms: _20  and  _22
REMARK    9  A    between atoms: _22  and  _23
REMARK   10  A    between atoms: _22  and  _25
REMARK   11  A    between atoms: _25  and  _26
REMARK   12  A    between atoms: _26  and  _27
REMARK   13  A    between atoms: _32  and  _34
REMARK   14  A    between atoms: _34  and  _35
REMARK   15  A    between atoms: _34  and  _37
REMARK   16  A    between atoms: _37  and  _38
REMARK   17  A    between atoms: _41  and  _43
REMARK   18  A    between atoms: _43  and  _44
REMARK   19  A    between atoms: _43  and  _46
REMARK   20  A    between atoms: _46  and  _47
REMARK   21  A    between atoms: _47  and  _82
REMARK   22  A    between atoms: _48  and  _50
REMARK   23  A    between atoms: _50  and  _51
REMARK   24  A    between atoms: _53  and  _55
REMARK   25  A    between atoms: _55  and  _56
REMARK   26  A    between atoms: _59  and  _61
REMARK   27  A    between atoms: _61  and  _62
REMARK   28  A    between atoms: _65  and  _67
REMARK   29  A    between atoms: _67  and  _68
REMARK   30  A    between atoms: _67  and  _70
REMARK   31  A    between atoms: _70  and  _71
REMARK   32  A    between atoms: _76  and  _78
REMARK   33  A    between atoms: _78  and  _79
REMARK   34  A    between atoms: _78  and  _81
REMARK   35  A    between atoms: _81  and  _82
REMARK   36  A    between atoms: _83  and  _85
REMARK   37  A    between atoms: _85  and  _86
REMARK   38  A    between atoms: _85  and  _88
REMARK   39  A    between atoms: _88  and  _89
REMARK   40  A    between atoms: _95  and  _97
REMARK   41  A    between atoms: _97  and  _98
REMARK   42  A    between atoms: _97  and  _100
REMARK   43  A    between atoms: _100  and  _101
REMARK   44  A    between atoms: _104  and  _106
REMARK   45  A    between atoms: _106  and  _107
REMARK   46  A    between atoms: _106  and  _109
REMARK   47  A    between atoms: _109  and  _110
REMARK   48  A    between atoms: _110  and  _111
REMARK   49  A    between atoms: _111  and  _112
REMARK   50  A    between atoms: _112  and  _113
REMARK   51  A    between atoms: _117  and  _119
REMARK   52  A    between atoms: _119  and  _120
REMARK   53  A    between atoms: _119  and  _122
REMARK   54  A    between atoms: _122  and  _123
REMARK   55  A    between atoms: _128  and  _129
REMARK   56  A    between atoms: _132  and  _133
REMARK   57  A    between atoms: _138  and  _140
REMARK   58  A    between atoms: _140  and  _141
REMARK   59  A    between atoms: _143  and  _145
REMARK   60  A    between atoms: _145  and  _146
REMARK   61  A    between atoms: _145  and  _148
REMARK   62  A    between atoms: _148  and  _149
REMARK   63  A    between atoms: _152  and  _154
REMARK   64  A    between atoms: _154  and  _155
REMARK   65  A    between atoms: _154  and  _157
REMARK   66  A    between atoms: _157  and  _158
REMARK   67  A    between atoms: _161  and  _163
REMARK   68  A    between atoms: _163  and  _164
REMARK   69  A    between atoms: _163  and  _166
REMARK   70  A    between atoms: _166  and  _167
REMARK   71  A    between atoms: _170  and  _172
REMARK   72  A    between atoms: _172  and  _173
REMARK   73  A    between atoms: _172  and  _175
REMARK   74  A    between atoms: _178  and  _180
REMARK   75  A    between atoms: _180  and  _181
REMARK   76  A    between atoms: _183  and  _185
REMARK   77  A    between atoms: _185  and  _186
REMARK   78  A    between atoms: _185  and  _188
REMARK   79  A    between atoms: _188  and  _189
REMARK   80  A    between atoms: _189  and  _190
REMARK   81  A    between atoms: _195  and  _197
REMARK   82  A    between atoms: _197  and  _198
REMARK   83  A    between atoms: _197  and  _200
REMARK   84  A    between atoms: _200  and  _201
REMARK   85  A    between atoms: _204  and  _206
REMARK   86  A    between atoms: _206  and  _207
REMARK   87  A    between atoms: _206  and  _209
REMARK   88  A    between atoms: _209  and  _210
REMARK   89  A    between atoms: _213  and  _215
REMARK   90  A    between atoms: _215  and  _216
REMARK   91  A    between atoms: _215  and  _218
REMARK   92  A    between atoms: _218  and  _219
REMARK   93  A    between atoms: _219  and  _220
REMARK   94  A    between atoms: _220  and  _221
REMARK   95  A    between atoms: _230  and  _232
REMARK   96  A    between atoms: _232  and  _233
REMARK   97  A    between atoms: _235  and  _237
REMARK   98  A    between atoms: _237  and  _238
REMARK   99  A    between atoms: _237  and  _240
REMARK  100  A    between atoms: _240  and  _241
REMARK  101  A    between atoms: _244  and  _246
REMARK  102  A    between atoms: _246  and  _247
REMARK  103  A    between atoms: _250  and  _252
REMARK  104  A    between atoms: _252  and  _253
REMARK  105  A    between atoms: _252  and  _255
REMARK  106  A    between atoms: _255  and  _256
REMARK  107  A    between atoms: _261  and  _262
REMARK  108  A    between atoms: _264  and  _266
REMARK  109  A    between atoms: _266  and  _267
REMARK  110  A    between atoms: _266  and  _269
REMARK  111  A    between atoms: _269  and  _270
REMARK  112  A    between atoms: _270  and  _271
REMARK  113  A    between atoms: _271  and  _272
REMARK  114  A    between atoms: _272  and  _273
REMARK  115  A    between atoms: _277  and  _279
REMARK  116  A    between atoms: _279  and  _280
REMARK  117  A    between atoms: _279  and  _282
REMARK  118  A    between atoms: _282  and  _283
REMARK  119  A    between atoms: _286  and  _288
REMARK  120  A    between atoms: _288  and  _289
REMARK  121  A    between atoms: _288  and  _291
REMARK  122  A    between atoms: _291  and  _292
REMARK  123  A    between atoms: _294  and  _296
REMARK  124  A    between atoms: _296  and  _297
REMARK  125  A    between atoms: _296  and  _299
REMARK  126  A    between atoms: _299  and  _300
REMARK  127  A    between atoms: _300  and  _415
REMARK  128  A    between atoms: _301  and  _303
REMARK  129  A    between atoms: _303  and  _304
REMARK  130  A    between atoms: _303  and  _306
REMARK  131  A    between atoms: _306  and  _307
REMARK  132  A    between atoms: _307  and  _308
REMARK  133  A    between atoms: _308  and  _309
REMARK  134  A    between atoms: _309  and  _310
REMARK  135  A    between atoms: _314  and  _316
REMARK  136  A    between atoms: _316  and  _317
REMARK  137  A    between atoms: _319  and  _321
REMARK  138  A    between atoms: _321  and  _322
REMARK  139  A    between atoms: _321  and  _324
REMARK  140  A    between atoms: _324  and  _325
REMARK  141  A    between atoms: _328  and  _330
REMARK  142  A    between atoms: _330  and  _331
REMARK  143  A    between atoms: _330  and  _333
REMARK  144  A    between atoms: _333  and  _334
REMARK  145  A    between atoms: _336  and  _338
REMARK  146  A    between atoms: _338  and  _339
REMARK  147  A    between atoms: _341  and  _343
REMARK  148  A    between atoms: _343  and  _344
REMARK  149  A    between atoms: _346  and  _348
REMARK  150  A    between atoms: _348  and  _349
REMARK  151  A    between atoms: _348  and  _351
REMARK  152  A    between atoms: _351  and  _352
REMARK  153  A    between atoms: _355  and  _357
REMARK  154  A    between atoms: _357  and  _358
REMARK  155  A    between atoms: _357  and  _360
REMARK  156  A    between atoms: _363  and  _365
REMARK  157  A    between atoms: _365  and  _366
REMARK  158  A    between atoms: _365  and  _368
REMARK  159  A    between atoms: _368  and  _369
REMARK  160  A    between atoms: _371  and  _373
REMARK  161  A    between atoms: _373  and  _374
REMARK  162  A    between atoms: _373  and  _376
REMARK  163  A    between atoms: _376  and  _377
REMARK  164  A    between atoms: _387  and  _389
REMARK  165  A    between atoms: _389  and  _390
REMARK  166  A    between atoms: _392  and  _394
REMARK  167  A    between atoms: _394  and  _395
REMARK  168  A    between atoms: _394  and  _397
REMARK  169  A    between atoms: _397  and  _398
REMARK  170  A    between atoms: _398  and  _399
REMARK  171  A    between atoms: _404  and  _406
REMARK  172  A    between atoms: _406  and  _407
REMARK  173  A    between atoms: _409  and  _411
REMARK  174  A    between atoms: _411  and  _412
REMARK  175  A    between atoms: _411  and  _414
REMARK  176  A    between atoms: _414  and  _415
REMARK  177  A    between atoms: _416  and  _418
REMARK  178  A    between atoms: _418  and  _419
REMARK  179  A    between atoms: _422  and  _424
REMARK  180  A    between atoms: _424  and  _425
REMARK  181  A    between atoms: _424  and  _427
REMARK  182  A    between atoms: _427  and  _428
REMARK  183  A    between atoms: _431  and  _433
REMARK  184  A    between atoms: _433  and  _434
REMARK  185  A    between atoms: _433  and  _436
REMARK  186  A    between atoms: _436  and  _437
REMARK  187  A    between atoms: _442  and  _444
REMARK  188  A    between atoms: _444  and  _445
REMARK  189  A    between atoms: _444  and  _447
REMARK  190  A    between atoms: _447  and  _448
REMARK  191  A    between atoms: _454  and  _456
REMARK  192  A    between atoms: _456  and  _457
REMARK  193  A    between atoms: _459  and  _461
REMARK  194  A    between atoms: _461  and  _462
REMARK  195  A    between atoms: _461  and  _464
REMARK  196  A    between atoms: _467  and  _469
REMARK  197  A    between atoms: _469  and  _470
REMARK  198  A    between atoms: _469  and  _472
REMARK  199  A    between atoms: _472  and  _473
REMARK  200  A    between atoms: _478  and  _479
REMARK                            x       y       z     vdW  Elec       q    Type
REMARK                         _______ _______ _______ _____ _____    ______ ____
ROOT
ATOM      1  O   HOH     1       8.625  39.241  19.435  0.00  0.00    +0.000 OA
ENDROOT
TORSDOF 0
REMARK  Name = ../refined-set-2016/4na9/4na9_pocket.pdb
REMARK  200 active torsions:
REMARK  status: ('A' for Active; 'I' for Inactive)
REMARK    1  A    between atoms: _1  and  _5
REMARK    2  A    between atoms: _5  and  _6
REMARK    3  A    between atoms: _5  and  _8
REMARK    4  A    between atoms: _8  and  _9
REMARK    5  A    between atoms: _12  and  _14
REMARK    6  A    between atoms: _14  and  _15
REMARK    7  A    between atoms: _14  and  _17
REMARK    8  A    between atoms: _20  and  _22
REMARK    9  A    between atoms: _22  and  _23
REMARK   10  A    between atoms: _22  and  _25
REMARK   11  A    between atoms: _25  and  _26
REMARK   12  A    between atoms: _26  and  _27
REMARK   13  A    between atoms: _32  and  _34
REMARK   14  A    between atoms: _34  and  _35
REMARK   15  A    between atoms: _34  and  _37
REMARK   16  A    between atoms: _37  and  _38
REMARK   17  A    between atoms: _41  and  _43
REMARK   18  A    between atoms: _43  and  _44
REMARK   19  A    between atoms: _43  and  _46
REMARK   20  A    between atoms: _46  and  _47
REMARK   21  A    between atoms: _47  and  _82
REMARK   22  A    between atoms: _48  and  _50
REMARK   23  A    between atoms: _50  and  _51
REMARK   24  A    between atoms: _53  and  _55
REMARK   25  A    between atoms: _55  and  _56
REMARK   26  A    between atoms: _59  and  _61
REMARK   27  A    between atoms: _61  and  _62
REMARK   28  A    between atoms: _65  and  _67
REMARK   29  A    between atoms: _67  and  _68
REMARK   30  A    between atoms: _67  and  _70
REMARK   31  A    between atoms: _70  and  _71
REMARK   32  A    between atoms: _76  and  _78
REMARK   33  A    between atoms: _78  and  _79
REMARK   34  A    between atoms: _78  and  _81
REMARK   35  A    between atoms: _81  and  _82
REMARK   36  A    between atoms: _83  and  _85
REMARK   37  A    between atoms: _85  and  _86
REMARK   38  A    between atoms: _85  and  _88
REMARK   39  A    between atoms: _88  and  _89
REMARK   40  A    between atoms: _95  and  _97
REMARK   41  A    between atoms: _97  and  _98
REMARK   42  A    between atoms: _97  and  _100
REMARK   43  A    between atoms: _100  and  _101
REMARK   44  A    between atoms: _104  and  _106
REMARK   45  A    between atoms: _106  and  _107
REMARK   46  A    between atoms: _106  and  _109
REMARK   47  A    between atoms: _109  and  _110
REMARK   48  A    between atoms: _110  and  _111
REMARK   49  A    between atoms: _111  and  _112
REMARK   50  A    between atoms: _112  and  _113
REMARK   51  A    between atoms: _117  and  _119
REMARK   52  A    between atoms: _119  and  _120
REMARK   53  A    between atoms: _119  and  _122
REMARK   54  A    between atoms: _122  and  _123
REMARK   55  A    between atoms: _128  and  _129
REMARK   56  A    between atoms: _132  and  _133
REMARK   57  A    between atoms: _138  and  _140
REMARK   58  A    between atoms: _140  and  _141
REMARK   59  A    between atoms: _143  and  _145
REMARK   60  A    between atoms: _145  and  _146
REMARK   61  A    between atoms: _145  and  _148
REMARK   62  A    between atoms: _148  and  _149
REMARK   63  A    between atoms: _152  and  _154
REMARK   64  A    between atoms: _154  and  _155
REMARK   65  A    between atoms: _154  and  _157
REMARK   66  A    between atoms: _157  and  _158
REMARK   67  A    between atoms: _161  and  _163
REMARK   68  A    between atoms: _163  and  _164
REMARK   69  A    between atoms: _163  and  _166
REMARK   70  A    between atoms: _166  and  _167
REMARK   71  A    between atoms: _170  and  _172
REMARK   72  A    between atoms: _172  and  _173
REMARK   73  A    between atoms: _172  and  _175
REMARK   74  A    between atoms: _178  and  _180
REMARK   75  A    between atoms: _180  and  _181
REMARK   76  A    between atoms: _183  and  _185
REMARK   77  A    between atoms: _185  and  _186
REMARK   78  A    between atoms: _185  and  _188
REMARK   79  A    between atoms: _188  and  _189
REMARK   80  A    between atoms: _189  and  _190
REMARK   81  A    between atoms: _195  and  _197
REMARK   82  A    between atoms: _197  and  _198
REMARK   83  A    between atoms: _197  and  _200
REMARK   84  A    between atoms: _200  and  _201
REMARK   85  A    between atoms: _204  and  _206
REMARK   86  A    between atoms: _206  and  _207
REMARK   87  A    between atoms: _206  and  _209
REMARK   88  A    between atoms: _209  and  _210
REMARK   89  A    between atoms: _213  and  _215
REMARK   90  A    between atoms: _215  and  _216
REMARK   91  A    between atoms: _215  and  _218
REMARK   92  A    between atoms: _218  and  _219
REMARK   93  A    between atoms: _219  and  _220
REMARK   94  A    between atoms: _220  and  _221
REMARK   95  A    between atoms: _230  and  _232
REMARK   96  A    between atoms: _232  and  _233
REMARK   97  A    between atoms: _235  and  _237
REMARK   98  A    between atoms: _237  and  _238
REMARK   99  A    between atoms: _237  and  _240
REMARK  100  A    between atoms: _240  and  _241
REMARK  101  A    between atoms: _244  and  _246
REMARK  102  A    between atoms: _246  and  _247
REMARK  103  A    between atoms: _250  and  _252
REMARK  104  A    between atoms: _252  and  _253
REMARK  105  A    between atoms: _252  and  _255
REMARK  106  A    between atoms: _255  and  _256
REMARK  107  A    between atoms: _261  and  _262
REMARK  108  A    between atoms: _264  and  _266
REMARK  109  A    between atoms: _266  and  _267
REMARK  110  A    between atoms: _266  and  _269
REMARK  111  A    between atoms: _269  and  _270
REMARK  112  A    between atoms: _270  and  _271
REMARK  113  A    between atoms: _271  and  _272
REMARK  114  A    between atoms: _272  and  _273
REMARK  115  A    between atoms: _277  and  _279
REMARK  116  A    between atoms: _279  and  _280
REMARK  117  A    between atoms: _279  and  _282
REMARK  118  A    between atoms: _282  and  _283
REMARK  119  A    between atoms: _286  and  _288
REMARK  120  A    between atoms: _288  and  _289
REMARK  121  A    between atoms: _288  and  _291
REMARK  122  A    between atoms: _291  and  _292
REMARK  123  A    between atoms: _294  and  _296
REMARK  124  A    between atoms: _296  and  _297
REMARK  125  A    between atoms: _296  and  _299
REMARK  126  A    between atoms: _299  and  _300
REMARK  127  A    between atoms: _300  and  _415
REMARK  128  A    between atoms: _301  and  _303
REMARK  129  A    between atoms: _303  and  _304
REMARK  130  A    between atoms: _303  and  _306
REMARK  131  A    between atoms: _306  and  _307
REMARK  132  A    between atoms: _307  and  _308
REMARK  133  A    between atoms: _308  and  _309
REMARK  134  A    between atoms: _309  and  _310
REMARK  135  A    between atoms: _314  and  _316
REMARK  136  A    between atoms: _316  and  _317
REMARK  137  A    between atoms: _319  and  _321
REMARK  138  A    between atoms: _321  and  _322
REMARK  139  A    between atoms: _321  and  _324
REMARK  140  A    between atoms: _324  and  _325
REMARK  141  A    between atoms: _328  and  _330
REMARK  142  A    between atoms: _330  and  _331
REMARK  143  A    between atoms: _330  and  _333
REMARK  144  A    between atoms: _333  and  _334
REMARK  145  A    between atoms: _336  and  _338
REMARK  146  A    between atoms: _338  and  _339
REMARK  147  A    between atoms: _341  and  _343
REMARK  148  A    between atoms: _343  and  _344
REMARK  149  A    between atoms: _346  and  _348
REMARK  150  A    between atoms: _348  and  _349
REMARK  151  A    between atoms: _348  and  _351
REMARK  152  A    between atoms: _351  and  _352
REMARK  153  A    between atoms: _355  and  _357
REMARK  154  A    between atoms: _357  and  _358
REMARK  155  A    between atoms: _357  and  _360
REMARK  156  A    between atoms: _363  and  _365
REMARK  157  A    between atoms: _365  and  _366
REMARK  158  A    between atoms: _365  and  _368
REMARK  159  A    between atoms: _368  and  _369
REMARK  160  A    between atoms: _371  and  _373
REMARK  161  A    between atoms: _373  and  _374
REMARK  162  A    between atoms: _373  and  _376
REMARK  163  A    between atoms: _376  and  _377
REMARK  164  A    between atoms: _387  and  _389
REMARK  165  A    between atoms: _389  and  _390
REMARK  166  A    between atoms: _392  and  _394
REMARK  167  A    between atoms: _394  and  _395
REMARK  168  A    between atoms: _394  and  _397
REMARK  169  A    between atoms: _397  and  _398
REMARK  170  A    between atoms: _398  and  _399
REMARK  171  A    between atoms: _404  and  _406
REMARK  172  A    between atoms: _406  and  _407
REMARK  173  A    between atoms: _409  and  _411
REMARK  174  A    between atoms: _411  and  _412
REMARK  175  A    between atoms: _411  and  _414
REMARK  176  A    between atoms: _414  and  _415
REMARK  177  A    between atoms: _416  and  _418
REMARK  178  A    between atoms: _418  and  _419
REMARK  179  A    between atoms: _422  and  _424
REMARK  180  A    between atoms: _424  and  _425
REMARK  181  A    between atoms: _424  and  _427
REMARK  182  A    between atoms: _427  and  _428
REMARK  183  A    between atoms: _431  and  _433
REMARK  184  A    between atoms: _433  and  _434
REMARK  185  A    between atoms: _433  and  _436
REMARK  186  A    between atoms: _436  and  _437
REMARK  187  A    between atoms: _442  and  _444
REMARK  188  A    between atoms: _444  and  _445
REMARK  189  A    between atoms: _444  and  _447
REMARK  190  A    between atoms: _447  and  _448
REMARK  191  A    between atoms: _454  and  _456
REMARK  192  A    between atoms: _456  and  _457
REMARK  193  A    between atoms: _459  and  _461
REMARK  194  A    between atoms: _461  and  _462
REMARK  195  A    between atoms: _461  and  _464
REMARK  196  A    between atoms: _467  and  _469
REMARK  197  A    between atoms: _469  and  _470
REMARK  198  A    between atoms: _469  and  _472
REMARK  199  A    between atoms: _472  and  _473
REMARK  200  A    between atoms: _478  and  _479
REMARK                            x       y       z     vdW  Elec       q    Type
REMARK                         _______ _______ _______ _____ _____    ______ ____
ROOT
ATOM      1  O   HOH     1       1.339  36.688  20.586  0.00  0.00    +0.000 OA
ENDROOT
TORSDOF 0
REMARK  Name = ../refined-set-2016/4na9/4na9_pocket.pdb
REMARK  200 active torsions:
REMARK  status: ('A' for Active; 'I' for Inactive)
REMARK    1  A    between atoms: _1  and  _5
REMARK    2  A    between atoms: _5  and  _6
REMARK    3  A    between atoms: _5  and  _8
REMARK    4  A    between atoms: _8  and  _9
REMARK    5  A    between atoms: _12  and  _14
REMARK    6  A    between atoms: _14  and  _15
REMARK    7  A    between atoms: _14  and  _17
REMARK    8  A    between atoms: _20  and  _22
REMARK    9  A    between atoms: _22  and  _23
REMARK   10  A    between atoms: _22  and  _25
REMARK   11  A    between atoms: _25  and  _26
REMARK   12  A    between atoms: _26  and  _27
REMARK   13  A    between atoms: _32  and  _34
REMARK   14  A    between atoms: _34  and  _35
REMARK   15  A    between atoms: _34  and  _37
REMARK   16  A    between atoms: _37  and  _38
REMARK   17  A    between atoms: _41  and  _43
REMARK   18  A    between atoms: _43  and  _44
REMARK   19  A    between atoms: _43  and  _46
REMARK   20  A    between atoms: _46  and  _47
REMARK   21  A    between atoms: _47  and  _82
REMARK   22  A    between atoms: _48  and  _50
REMARK   23  A    between atoms: _50  and  _51
REMARK   24  A    between atoms: _53  and  _55
REMARK   25  A    between atoms: _55  and  _56
REMARK   26  A    between atoms: _59  and  _61
REMARK   27  A    between atoms: _61  and  _62
REMARK   28  A    between atoms: _65  and  _67
REMARK   29  A    between atoms: _67  and  _68
REMARK   30  A    between atoms: _67  and  _70
REMARK   31  A    between atoms: _70  and  _71
REMARK   32  A    between atoms: _76  and  _78
REMARK   33  A    between atoms: _78  and  _79
REMARK   34  A    between atoms: _78  and  _81
REMARK   35  A    between atoms: _81  and  _82
REMARK   36  A    between atoms: _83  and  _85
REMARK   37  A    between atoms: _85  and  _86
REMARK   38  A    between atoms: _85  and  _88
REMARK   39  A    between atoms: _88  and  _89
REMARK   40  A    between atoms: _95  and  _97
REMARK   41  A    between atoms: _97  and  _98
REMARK   42  A    between atoms: _97  and  _100
REMARK   43  A    between atoms: _100  and  _101
REMARK   44  A    between atoms: _104  and  _106
REMARK   45  A    between atoms: _106  and  _107
REMARK   46  A    between atoms: _106  and  _109
REMARK   47  A    between atoms: _109  and  _110
REMARK   48  A    between atoms: _110  and  _111
REMARK   49  A    between atoms: _111  and  _112
REMARK   50  A    between atoms: _112  and  _113
REMARK   51  A    between atoms: _117  and  _119
REMARK   52  A    between atoms: _119  and  _120
REMARK   53  A    between atoms: _119  and  _122
REMARK   54  A    between atoms: _122  and  _123
REMARK   55  A    between atoms: _128  and  _129
REMARK   56  A    between atoms: _132  and  _133
REMARK   57  A    between atoms: _138  and  _140
REMARK   58  A    between atoms: _140  and  _141
REMARK   59  A    between atoms: _143  and  _145
REMARK   60  A    between atoms: _145  and  _146
REMARK   61  A    between atoms: _145  and  _148
REMARK   62  A    between atoms: _148  and  _149
REMARK   63  A    between atoms: _152  and  _154
REMARK   64  A    between atoms: _154  and  _155
REMARK   65  A    between atoms: _154  and  _157
REMARK   66  A    between atoms: _157  and  _158
REMARK   67  A    between atoms: _161  and  _163
REMARK   68  A    between atoms: _163  and  _164
REMARK   69  A    between atoms: _163  and  _166
REMARK   70  A    between atoms: _166  and  _167
REMARK   71  A    between atoms: _170  and  _172
REMARK   72  A    between atoms: _172  and  _173
REMARK   73  A    between atoms: _172  and  _175
REMARK   74  A    between atoms: _178  and  _180
REMARK   75  A    between atoms: _180  and  _181
REMARK   76  A    between atoms: _183  and  _185
REMARK   77  A    between atoms: _185  and  _186
REMARK   78  A    between atoms: _185  and  _188
REMARK   79  A    between atoms: _188  and  _189
REMARK   80  A    between atoms: _189  and  _190
REMARK   81  A    between atoms: _195  and  _197
REMARK   82  A    between atoms: _197  and  _198
REMARK   83  A    between atoms: _197  and  _200
REMARK   84  A    between atoms: _200  and  _201
REMARK   85  A    between atoms: _204  and  _206
REMARK   86  A    between atoms: _206  and  _207
REMARK   87  A    between atoms: _206  and  _209
REMARK   88  A    between atoms: _209  and  _210
REMARK   89  A    between atoms: _213  and  _215
REMARK   90  A    between atoms: _215  and  _216
REMARK   91  A    between atoms: _215  and  _218
REMARK   92  A    between atoms: _218  and  _219
REMARK   93  A    between atoms: _219  and  _220
REMARK   94  A    between atoms: _220  and  _221
REMARK   95  A    between atoms: _230  and  _232
REMARK   96  A    between atoms: _232  and  _233
REMARK   97  A    between atoms: _235  and  _237
REMARK   98  A    between atoms: _237  and  _238
REMARK   99  A    between atoms: _237  and  _240
REMARK  100  A    between atoms: _240  and  _241
REMARK  101  A    between atoms: _244  and  _246
REMARK  102  A    between atoms: _246  and  _247
REMARK  103  A    between atoms: _250  and  _252
REMARK  104  A    between atoms: _252  and  _253
REMARK  105  A    between atoms: _252  and  _255
REMARK  106  A    between atoms: _255  and  _256
REMARK  107  A    between atoms: _261  and  _262
REMARK  108  A    between atoms: _264  and  _266
REMARK  109  A    between atoms: _266  and  _267
REMARK  110  A    between atoms: _266  and  _269
REMARK  111  A    between atoms: _269  and  _270
REMARK  112  A    between atoms: _270  and  _271
REMARK  113  A    between atoms: _271  and  _272
REMARK  114  A    between atoms: _272  and  _273
REMARK  115  A    between atoms: _277  and  _279
REMARK  116  A    between atoms: _279  and  _280
REMARK  117  A    between atoms: _279  and  _282
REMARK  118  A    between atoms: _282  and  _283
REMARK  119  A    between atoms: _286  and  _288
REMARK  120  A    between atoms: _288  and  _289
REMARK  121  A    between atoms: _288  and  _291
REMARK  122  A    between atoms: _291  and  _292
REMARK  123  A    between atoms: _294  and  _296
REMARK  124  A    between atoms: _296  and  _297
REMARK  125  A    between atoms: _296  and  _299
REMARK  126  A    between atoms: _299  and  _300
REMARK  127  A    between atoms: _300  and  _415
REMARK  128  A    between atoms: _301  and  _303
REMARK  129  A    between atoms: _303  and  _304
REMARK  130  A    between atoms: _303  and  _306
REMARK  131  A    between atoms: _306  and  _307
REMARK  132  A    between atoms: _307  and  _308
REMARK  133  A    between atoms: _308  and  _309
REMARK  134  A    between atoms: _309  and  _310
REMARK  135  A    between atoms: _314  and  _316
REMARK  136  A    between atoms: _316  and  _317
REMARK  137  A    between atoms: _319  and  _321
REMARK  138  A    between atoms: _321  and  _322
REMARK  139  A    between atoms: _321  and  _324
REMARK  140  A    between atoms: _324  and  _325
REMARK  141  A    between atoms: _328  and  _330
REMARK  142  A    between atoms: _330  and  _331
REMARK  143  A    between atoms: _330  and  _333
REMARK  144  A    between atoms: _333  and  _334
REMARK  145  A    between atoms: _336  and  _338
REMARK  146  A    between atoms: _338  and  _339
REMARK  147  A    between atoms: _341  and  _343
REMARK  148  A    between atoms: _343  and  _344
REMARK  149  A    between atoms: _346  and  _348
REMARK  150  A    between atoms: _348  and  _349
REMARK  151  A    between atoms: _348  and  _351
REMARK  152  A    between atoms: _351  and  _352
REMARK  153  A    between atoms: _355  and  _357
REMARK  154  A    between atoms: _357  and  _358
REMARK  155  A    between atoms: _357  and  _360
REMARK  156  A    between atoms: _363  and  _365
REMARK  157  A    between atoms: _365  and  _366
REMARK  158  A    between atoms: _365  and  _368
REMARK  159  A    between atoms: _368  and  _369
REMARK  160  A    between atoms: _371  and  _373
REMARK  161  A    between atoms: _373  and  _374
REMARK  162  A    between atoms: _373  and  _376
REMARK  163  A    between atoms: _376  and  _377
REMARK  164  A    between atoms: _387  and  _389
REMARK  165  A    between atoms: _389  and  _390
REMARK  166  A    between atoms: _392  and  _394
REMARK  167  A    between atoms: _394  and  _395
REMARK  168  A    between atoms: _394  and  _397
REMARK  169  A    between atoms: _397  and  _398
REMARK  170  A    between atoms: _398  and  _399
REMARK  171  A    between atoms: _404  and  _406
REMARK  172  A    between atoms: _406  and  _407
REMARK  173  A    between atoms: _409  and  _411
REMARK  174  A    between atoms: _411  and  _412
REMARK  175  A    between atoms: _411  and  _414
REMARK  176  A    between atoms: _414  and  _415
REMARK  177  A    between atoms: _416  and  _418
REMARK  178  A    between atoms: _418  and  _419
REMARK  179  A    between atoms: _422  and  _424
REMARK  180  A    between atoms: _424  and  _425
REMARK  181  A    between atoms: _424  and  _427
REMARK  182  A    between atoms: _427  and  _428
REMARK  183  A    between atoms: _431  and  _433
REMARK  184  A    between atoms: _433  and  _434
REMARK  185  A    between atoms: _433  and  _436
REMARK  186  A    between atoms: _436  and  _437
REMARK  187  A    between atoms: _442  and  _444
REMARK  188  A    between atoms: _444  and  _445
REMARK  189  A    between atoms: _444  and  _447
REMARK  190  A    between atoms: _447  and  _448
REMARK  191  A    between atoms: _454  and  _456
REMARK  192  A    between atoms: _456  and  _457
REMARK  193  A    between atoms: _459  and  _461
REMARK  194  A    between atoms: _461  and  _462
REMARK  195  A    between atoms: _461  and  _464
REMARK  196  A    between atoms: _467  and  _469
REMARK  197  A    between atoms: _469  and  _470
REMARK  198  A    between atoms: _469  and  _472
REMARK  199  A    between atoms: _472  and  _473
REMARK  200  A    between atoms: _478  and  _479
REMARK                            x       y       z     vdW  Elec       q    Type
REMARK                         _______ _______ _______ _____ _____    ______ ____
ROOT
ATOM      1  O   HOH     1       6.382  40.493  18.485  0.00  0.00    +0.000 OA
ENDROOT
TORSDOF 0
REMARK  Name = ../refined-set-2016/4na9/4na9_pocket.pdb
REMARK  200 active torsions:
REMARK  status: ('A' for Active; 'I' for Inactive)
REMARK    1  A    between atoms: _1  and  _5
REMARK    2  A    between atoms: _5  and  _6
REMARK    3  A    between atoms: _5  and  _8
REMARK    4  A    between atoms: _8  and  _9
REMARK    5  A    between atoms: _12  and  _14
REMARK    6  A    between atoms: _14  and  _15
REMARK    7  A    between atoms: _14  and  _17
REMARK    8  A    between atoms: _20  and  _22
REMARK    9  A    between atoms: _22  and  _23
REMARK   10  A    between atoms: _22  and  _25
REMARK   11  A    between atoms: _25  and  _26
REMARK   12  A    between atoms: _26  and  _27
REMARK   13  A    between atoms: _32  and  _34
REMARK   14  A    between atoms: _34  and  _35
REMARK   15  A    between atoms: _34  and  _37
REMARK   16  A    between atoms: _37  and  _38
REMARK   17  A    between atoms: _41  and  _43
REMARK   18  A    between atoms: _43  and  _44
REMARK   19  A    between atoms: _43  and  _46
REMARK   20  A    between atoms: _46  and  _47
REMARK   21  A    between atoms: _47  and  _82
REMARK   22  A    between atoms: _48  and  _50
REMARK   23  A    between atoms: _50  and  _51
REMARK   24  A    between atoms: _53  and  _55
REMARK   25  A    between atoms: _55  and  _56
REMARK   26  A    between atoms: _59  and  _61
REMARK   27  A    between atoms: _61  and  _62
REMARK   28  A    between atoms: _65  and  _67
REMARK   29  A    between atoms: _67  and  _68
REMARK   30  A    between atoms: _67  and  _70
REMARK   31  A    between atoms: _70  and  _71
REMARK   32  A    between atoms: _76  and  _78
REMARK   33  A    between atoms: _78  and  _79
REMARK   34  A    between atoms: _78  and  _81
REMARK   35  A    between atoms: _81  and  _82
REMARK   36  A    between atoms: _83  and  _85
REMARK   37  A    between atoms: _85  and  _86
REMARK   38  A    between atoms: _85  and  _88
REMARK   39  A    between atoms: _88  and  _89
REMARK   40  A    between atoms: _95  and  _97
REMARK   41  A    between atoms: _97  and  _98
REMARK   42  A    between atoms: _97  and  _100
REMARK   43  A    between atoms: _100  and  _101
REMARK   44  A    between atoms: _104  and  _106
REMARK   45  A    between atoms: _106  and  _107
REMARK   46  A    between atoms: _106  and  _109
REMARK   47  A    between atoms: _109  and  _110
REMARK   48  A    between atoms: _110  and  _111
REMARK   49  A    between atoms: _111  and  _112
REMARK   50  A    between atoms: _112  and  _113
REMARK   51  A    between atoms: _117  and  _119
REMARK   52  A    between atoms: _119  and  _120
REMARK   53  A    between atoms: _119  and  _122
REMARK   54  A    between atoms: _122  and  _123
REMARK   55  A    between atoms: _128  and  _129
REMARK   56  A    between atoms: _132  and  _133
REMARK   57  A    between atoms: _138  and  _140
REMARK   58  A    between atoms: _140  and  _141
REMARK   59  A    between atoms: _143  and  _145
REMARK   60  A    between atoms: _145  and  _146
REMARK   61  A    between atoms: _145  and  _148
REMARK   62  A    between atoms: _148  and  _149
REMARK   63  A    between atoms: _152  and  _154
REMARK   64  A    between atoms: _154  and  _155
REMARK   65  A    between atoms: _154  and  _157
REMARK   66  A    between atoms: _157  and  _158
REMARK   67  A    between atoms: _161  and  _163
REMARK   68  A    between atoms: _163  and  _164
REMARK   69  A    between atoms: _163  and  _166
REMARK   70  A    between atoms: _166  and  _167
REMARK   71  A    between atoms: _170  and  _172
REMARK   72  A    between atoms: _172  and  _173
REMARK   73  A    between atoms: _172  and  _175
REMARK   74  A    between atoms: _178  and  _180
REMARK   75  A    between atoms: _180  and  _181
REMARK   76  A    between atoms: _183  and  _185
REMARK   77  A    between atoms: _185  and  _186
REMARK   78  A    between atoms: _185  and  _188
REMARK   79  A    between atoms: _188  and  _189
REMARK   80  A    between atoms: _189  and  _190
REMARK   81  A    between atoms: _195  and  _197
REMARK   82  A    between atoms: _197  and  _198
REMARK   83  A    between atoms: _197  and  _200
REMARK   84  A    between atoms: _200  and  _201
REMARK   85  A    between atoms: _204  and  _206
REMARK   86  A    between atoms: _206  and  _207
REMARK   87  A    between atoms: _206  and  _209
REMARK   88  A    between atoms: _209  and  _210
REMARK   89  A    between atoms: _213  and  _215
REMARK   90  A    between atoms: _215  and  _216
REMARK   91  A    between atoms: _215  and  _218
REMARK   92  A    between atoms: _218  and  _219
REMARK   93  A    between atoms: _219  and  _220
REMARK   94  A    between atoms: _220  and  _221
REMARK   95  A    between atoms: _230  and  _232
REMARK   96  A    between atoms: _232  and  _233
REMARK   97  A    between atoms: _235  and  _237
REMARK   98  A    between atoms: _237  and  _238
REMARK   99  A    between atoms: _237  and  _240
REMARK  100  A    between atoms: _240  and  _241
REMARK  101  A    between atoms: _244  and  _246
REMARK  102  A    between atoms: _246  and  _247
REMARK  103  A    between atoms: _250  and  _252
REMARK  104  A    between atoms: _252  and  _253
REMARK  105  A    between atoms: _252  and  _255
REMARK  106  A    between atoms: _255  and  _256
REMARK  107  A    between atoms: _261  and  _262
REMARK  108  A    between atoms: _264  and  _266
REMARK  109  A    between atoms: _266  and  _267
REMARK  110  A    between atoms: _266  and  _269
REMARK  111  A    between atoms: _269  and  _270
REMARK  112  A    between atoms: _270  and  _271
REMARK  113  A    between atoms: _271  and  _272
REMARK  114  A    between atoms: _272  and  _273
REMARK  115  A    between atoms: _277  and  _279
REMARK  116  A    between atoms: _279  and  _280
REMARK  117  A    between atoms: _279  and  _282
REMARK  118  A    between atoms: _282  and  _283
REMARK  119  A    between atoms: _286  and  _288
REMARK  120  A    between atoms: _288  and  _289
REMARK  121  A    between atoms: _288  and  _291
REMARK  122  A    between atoms: _291  and  _292
REMARK  123  A    between atoms: _294  and  _296
REMARK  124  A    between atoms: _296  and  _297
REMARK  125  A    between atoms: _296  and  _299
REMARK  126  A    between atoms: _299  and  _300
REMARK  127  A    between atoms: _300  and  _415
REMARK  128  A    between atoms: _301  and  _303
REMARK  129  A    between atoms: _303  and  _304
REMARK  130  A    between atoms: _303  and  _306
REMARK  131  A    between atoms: _306  and  _307
REMARK  132  A    between atoms: _307  and  _308
REMARK  133  A    between atoms: _308  and  _309
REMARK  134  A    between atoms: _309  and  _310
REMARK  135  A    between atoms: _314  and  _316
REMARK  136  A    between atoms: _316  and  _317
REMARK  137  A    between atoms: _319  and  _321
REMARK  138  A    between atoms: _321  and  _322
REMARK  139  A    between atoms: _321  and  _324
REMARK  140  A    between atoms: _324  and  _325
REMARK  141  A    between atoms: _328  and  _330
REMARK  142  A    between atoms: _330  and  _331
REMARK  143  A    between atoms: _330  and  _333
REMARK  144  A    between atoms: _333  and  _334
REMARK  145  A    between atoms: _336  and  _338
REMARK  146  A    between atoms: _338  and  _339
REMARK  147  A    between atoms: _341  and  _343
REMARK  148  A    between atoms: _343  and  _344
REMARK  149  A    between atoms: _346  and  _348
REMARK  150  A    between atoms: _348  and  _349
REMARK  151  A    between atoms: _348  and  _351
REMARK  152  A    between atoms: _351  and  _352
REMARK  153  A    between atoms: _355  and  _357
REMARK  154  A    between atoms: _357  and  _358
REMARK  155  A    between atoms: _357  and  _360
REMARK  156  A    between atoms: _363  and  _365
REMARK  157  A    between atoms: _365  and  _366
REMARK  158  A    between atoms: _365  and  _368
REMARK  159  A    between atoms: _368  and  _369
REMARK  160  A    between atoms: _371  and  _373
REMARK  161  A    between atoms: _373  and  _374
REMARK  162  A    between atoms: _373  and  _376
REMARK  163  A    between atoms: _376  and  _377
REMARK  164  A    between atoms: _387  and  _389
REMARK  165  A    between atoms: _389  and  _390
REMARK  166  A    between atoms: _392  and  _394
REMARK  167  A    between atoms: _394  and  _395
REMARK  168  A    between atoms: _394  and  _397
REMARK  169  A    between atoms: _397  and  _398
REMARK  170  A    between atoms: _398  and  _399
REMARK  171  A    between atoms: _404  and  _406
REMARK  172  A    between atoms: _406  and  _407
REMARK  173  A    between atoms: _409  and  _411
REMARK  174  A    between atoms: _411  and  _412
REMARK  175  A    between atoms: _411  and  _414
REMARK  176  A    between atoms: _414  and  _415
REMARK  177  A    between atoms: _416  and  _418
REMARK  178  A    between atoms: _418  and  _419
REMARK  179  A    between atoms: _422  and  _424
REMARK  180  A    between atoms: _424  and  _425
REMARK  181  A    between atoms: _424  and  _427
REMARK  182  A    between atoms: _427  and  _428
REMARK  183  A    between atoms: _431  and  _433
REMARK  184  A    between atoms: _433  and  _434
REMARK  185  A    between atoms: _433  and  _436
REMARK  186  A    between atoms: _436  and  _437
REMARK  187  A    between atoms: _442  and  _444
REMARK  188  A    between atoms: _444  and  _445
REMARK  189  A    between atoms: _444  and  _447
REMARK  190  A    between atoms: _447  and  _448
REMARK  191  A    between atoms: _454  and  _456
REMARK  192  A    between atoms: _456  and  _457
REMARK  193  A    between atoms: _459  and  _461
REMARK  194  A    between atoms: _461  and  _462
REMARK  195  A    between atoms: _461  and  _464
REMARK  196  A    between atoms: _467  and  _469
REMARK  197  A    between atoms: _469  and  _470
REMARK  198  A    between atoms: _469  and  _472
REMARK  199  A    between atoms: _472  and  _473
REMARK  200  A    between atoms: _478  and  _479
REMARK                            x       y       z     vdW  Elec       q    Type
REMARK                         _______ _______ _______ _____ _____    ______ ____
ROOT
ATOM      1  O   HOH     1       9.329  41.626  18.727  0.00  0.00    +0.000 OA
ENDROOT
TORSDOF 0
REMARK  Name = ../refined-set-2016/4na9/4na9_pocket.pdb
REMARK  200 active torsions:
REMARK  status: ('A' for Active; 'I' for Inactive)
REMARK    1  A    between atoms: _1  and  _5
REMARK    2  A    between atoms: _5  and  _6
REMARK    3  A    between atoms: _5  and  _8
REMARK    4  A    between atoms: _8  and  _9
REMARK    5  A    between atoms: _12  and  _14
REMARK    6  A    between atoms: _14  and  _15
REMARK    7  A    between atoms: _14  and  _17
REMARK    8  A    between atoms: _20  and  _22
REMARK    9  A    between atoms: _22  and  _23
REMARK   10  A    between atoms: _22  and  _25
REMARK   11  A    between atoms: _25  and  _26
REMARK   12  A    between atoms: _26  and  _27
REMARK   13  A    between atoms: _32  and  _34
REMARK   14  A    between atoms: _34  and  _35
REMARK   15  A    between atoms: _34  and  _37
REMARK   16  A    between atoms: _37  and  _38
REMARK   17  A    between atoms: _41  and  _43
REMARK   18  A    between atoms: _43  and  _44
REMARK   19  A    between atoms: _43  and  _46
REMARK   20  A    between atoms: _46  and  _47
REMARK   21  A    between atoms: _47  and  _82
REMARK   22  A    between atoms: _48  and  _50
REMARK   23  A    between atoms: _50  and  _51
REMARK   24  A    between atoms: _53  and  _55
REMARK   25  A    between atoms: _55  and  _56
REMARK   26  A    between atoms: _59  and  _61
REMARK   27  A    between atoms: _61  and  _62
REMARK   28  A    between atoms: _65  and  _67
REMARK   29  A    between atoms: _67  and  _68
REMARK   30  A    between atoms: _67  and  _70
REMARK   31  A    between atoms: _70  and  _71
REMARK   32  A    between atoms: _76  and  _78
REMARK   33  A    between atoms: _78  and  _79
REMARK   34  A    between atoms: _78  and  _81
REMARK   35  A    between atoms: _81  and  _82
REMARK   36  A    between atoms: _83  and  _85
REMARK   37  A    between atoms: _85  and  _86
REMARK   38  A    between atoms: _85  and  _88
REMARK   39  A    between atoms: _88  and  _89
REMARK   40  A    between atoms: _95  and  _97
REMARK   41  A    between atoms: _97  and  _98
REMARK   42  A    between atoms: _97  and  _100
REMARK   43  A    between atoms: _100  and  _101
REMARK   44  A    between atoms: _104  and  _106
REMARK   45  A    between atoms: _106  and  _107
REMARK   46  A    between atoms: _106  and  _109
REMARK   47  A    between atoms: _109  and  _110
REMARK   48  A    between atoms: _110  and  _111
REMARK   49  A    between atoms: _111  and  _112
REMARK   50  A    between atoms: _112  and  _113
REMARK   51  A    between atoms: _117  and  _119
REMARK   52  A    between atoms: _119  and  _120
REMARK   53  A    between atoms: _119  and  _122
REMARK   54  A    between atoms: _122  and  _123
REMARK   55  A    between atoms: _128  and  _129
REMARK   56  A    between atoms: _132  and  _133
REMARK   57  A    between atoms: _138  and  _140
REMARK   58  A    between atoms: _140  and  _141
REMARK   59  A    between atoms: _143  and  _145
REMARK   60  A    between atoms: _145  and  _146
REMARK   61  A    between atoms: _145  and  _148
REMARK   62  A    between atoms: _148  and  _149
REMARK   63  A    between atoms: _152  and  _154
REMARK   64  A    between atoms: _154  and  _155
REMARK   65  A    between atoms: _154  and  _157
REMARK   66  A    between atoms: _157  and  _158
REMARK   67  A    between atoms: _161  and  _163
REMARK   68  A    between atoms: _163  and  _164
REMARK   69  A    between atoms: _163  and  _166
REMARK   70  A    between atoms: _166  and  _167
REMARK   71  A    between atoms: _170  and  _172
REMARK   72  A    between atoms: _172  and  _173
REMARK   73  A    between atoms: _172  and  _175
REMARK   74  A    between atoms: _178  and  _180
REMARK   75  A    between atoms: _180  and  _181
REMARK   76  A    between atoms: _183  and  _185
REMARK   77  A    between atoms: _185  and  _186
REMARK   78  A    between atoms: _185  and  _188
REMARK   79  A    between atoms: _188  and  _189
REMARK   80  A    between atoms: _189  and  _190
REMARK   81  A    between atoms: _195  and  _197
REMARK   82  A    between atoms: _197  and  _198
REMARK   83  A    between atoms: _197  and  _200
REMARK   84  A    between atoms: _200  and  _201
REMARK   85  A    between atoms: _204  and  _206
REMARK   86  A    between atoms: _206  and  _207
REMARK   87  A    between atoms: _206  and  _209
REMARK   88  A    between atoms: _209  and  _210
REMARK   89  A    between atoms: _213  and  _215
REMARK   90  A    between atoms: _215  and  _216
REMARK   91  A    between atoms: _215  and  _218
REMARK   92  A    between atoms: _218  and  _219
REMARK   93  A    between atoms: _219  and  _220
REMARK   94  A    between atoms: _220  and  _221
REMARK   95  A    between atoms: _230  and  _232
REMARK   96  A    between atoms: _232  and  _233
REMARK   97  A    between atoms: _235  and  _237
REMARK   98  A    between atoms: _237  and  _238
REMARK   99  A    between atoms: _237  and  _240
REMARK  100  A    between atoms: _240  and  _241
REMARK  101  A    between atoms: _244  and  _246
REMARK  102  A    between atoms: _246  and  _247
REMARK  103  A    between atoms: _250  and  _252
REMARK  104  A    between atoms: _252  and  _253
REMARK  105  A    between atoms: _252  and  _255
REMARK  106  A    between atoms: _255  and  _256
REMARK  107  A    between atoms: _261  and  _262
REMARK  108  A    between atoms: _264  and  _266
REMARK  109  A    between atoms: _266  and  _267
REMARK  110  A    between atoms: _266  and  _269
REMARK  111  A    between atoms: _269  and  _270
REMARK  112  A    between atoms: _270  and  _271
REMARK  113  A    between atoms: _271  and  _272
REMARK  114  A    between atoms: _272  and  _273
REMARK  115  A    between atoms: _277  and  _279
REMARK  116  A    between atoms: _279  and  _280
REMARK  117  A    between atoms: _279  and  _282
REMARK  118  A    between atoms: _282  and  _283
REMARK  119  A    between atoms: _286  and  _288
REMARK  120  A    between atoms: _288  and  _289
REMARK  121  A    between atoms: _288  and  _291
REMARK  122  A    between atoms: _291  and  _292
REMARK  123  A    between atoms: _294  and  _296
REMARK  124  A    between atoms: _296  and  _297
REMARK  125  A    between atoms: _296  and  _299
REMARK  126  A    between atoms: _299  and  _300
REMARK  127  A    between atoms: _300  and  _415
REMARK  128  A    between atoms: _301  and  _303
REMARK  129  A    between atoms: _303  and  _304
REMARK  130  A    between atoms: _303  and  _306
REMARK  131  A    between atoms: _306  and  _307
REMARK  132  A    between atoms: _307  and  _308
REMARK  133  A    between atoms: _308  and  _309
REMARK  134  A    between atoms: _309  and  _310
REMARK  135  A    between atoms: _314  and  _316
REMARK  136  A    between atoms: _316  and  _317
REMARK  137  A    between atoms: _319  and  _321
REMARK  138  A    between atoms: _321  and  _322
REMARK  139  A    between atoms: _321  and  _324
REMARK  140  A    between atoms: _324  and  _325
REMARK  141  A    between atoms: _328  and  _330
REMARK  142  A    between atoms: _330  and  _331
REMARK  143  A    between atoms: _330  and  _333
REMARK  144  A    between atoms: _333  and  _334
REMARK  145  A    between atoms: _336  and  _338
REMARK  146  A    between atoms: _338  and  _339
REMARK  147  A    between atoms: _341  and  _343
REMARK  148  A    between atoms: _343  and  _344
REMARK  149  A    between atoms: _346  and  _348
REMARK  150  A    between atoms: _348  and  _349
REMARK  151  A    between atoms: _348  and  _351
REMARK  152  A    between atoms: _351  and  _352
REMARK  153  A    between atoms: _355  and  _357
REMARK  154  A    between atoms: _357  and  _358
REMARK  155  A    between atoms: _357  and  _360
REMARK  156  A    between atoms: _363  and  _365
REMARK  157  A    between atoms: _365  and  _366
REMARK  158  A    between atoms: _365  and  _368
REMARK  159  A    between atoms: _368  and  _369
REMARK  160  A    between atoms: _371  and  _373
REMARK  161  A    between atoms: _373  and  _374
REMARK  162  A    between atoms: _373  and  _376
REMARK  163  A    between atoms: _376  and  _377
REMARK  164  A    between atoms: _387  and  _389
REMARK  165  A    between atoms: _389  and  _390
REMARK  166  A    between atoms: _392  and  _394
REMARK  167  A    between atoms: _394  and  _395
REMARK  168  A    between atoms: _394  and  _397
REMARK  169  A    between atoms: _397  and  _398
REMARK  170  A    between atoms: _398  and  _399
REMARK  171  A    between atoms: _404  and  _406
REMARK  172  A    between atoms: _406  and  _407
REMARK  173  A    between atoms: _409  and  _411
REMARK  174  A    between atoms: _411  and  _412
REMARK  175  A    between atoms: _411  and  _414
REMARK  176  A    between atoms: _414  and  _415
REMARK  177  A    between atoms: _416  and  _418
REMARK  178  A    between atoms: _418  and  _419
REMARK  179  A    between atoms: _422  and  _424
REMARK  180  A    between atoms: _424  and  _425
REMARK  181  A    between atoms: _424  and  _427
REMARK  182  A    between atoms: _427  and  _428
REMARK  183  A    between atoms: _431  and  _433
REMARK  184  A    between atoms: _433  and  _434
REMARK  185  A    between atoms: _433  and  _436
REMARK  186  A    between atoms: _436  and  _437
REMARK  187  A    between atoms: _442  and  _444
REMARK  188  A    between atoms: _444  and  _445
REMARK  189  A    between atoms: _444  and  _447
REMARK  190  A    between atoms: _447  and  _448
REMARK  191  A    between atoms: _454  and  _456
REMARK  192  A    between atoms: _456  and  _457
REMARK  193  A    between atoms: _459  and  _461
REMARK  194  A    between atoms: _461  and  _462
REMARK  195  A    between atoms: _461  and  _464
REMARK  196  A    between atoms: _467  and  _469
REMARK  197  A    between atoms: _469  and  _470
REMARK  198  A    between atoms: _469  and  _472
REMARK  199  A    between atoms: _472  and  _473
REMARK  200  A    between atoms: _478  and  _479
REMARK                            x       y       z     vdW  Elec       q    Type
REMARK                         _______ _______ _______ _____ _____    ______ ____
ROOT
ATOM      1  O   HOH     1      11.371  42.136  31.125  0.00  0.00    +0.000 OA
ENDROOT
TORSDOF 0
REMARK  Name = ../refined-set-2016/4na9/4na9_pocket.pdb
REMARK  200 active torsions:
REMARK  status: ('A' for Active; 'I' for Inactive)
REMARK    1  A    between atoms: _1  and  _5
REMARK    2  A    between atoms: _5  and  _6
REMARK    3  A    between atoms: _5  and  _8
REMARK    4  A    between atoms: _8  and  _9
REMARK    5  A    between atoms: _12  and  _14
REMARK    6  A    between atoms: _14  and  _15
REMARK    7  A    between atoms: _14  and  _17
REMARK    8  A    between atoms: _20  and  _22
REMARK    9  A    between atoms: _22  and  _23
REMARK   10  A    between atoms: _22  and  _25
REMARK   11  A    between atoms: _25  and  _26
REMARK   12  A    between atoms: _26  and  _27
REMARK   13  A    between atoms: _32  and  _34
REMARK   14  A    between atoms: _34  and  _35
REMARK   15  A    between atoms: _34  and  _37
REMARK   16  A    between atoms: _37  and  _38
REMARK   17  A    between atoms: _41  and  _43
REMARK   18  A    between atoms: _43  and  _44
REMARK   19  A    between atoms: _43  and  _46
REMARK   20  A    between atoms: _46  and  _47
REMARK   21  A    between atoms: _47  and  _82
REMARK   22  A    between atoms: _48  and  _50
REMARK   23  A    between atoms: _50  and  _51
REMARK   24  A    between atoms: _53  and  _55
REMARK   25  A    between atoms: _55  and  _56
REMARK   26  A    between atoms: _59  and  _61
REMARK   27  A    between atoms: _61  and  _62
REMARK   28  A    between atoms: _65  and  _67
REMARK   29  A    between atoms: _67  and  _68
REMARK   30  A    between atoms: _67  and  _70
REMARK   31  A    between atoms: _70  and  _71
REMARK   32  A    between atoms: _76  and  _78
REMARK   33  A    between atoms: _78  and  _79
REMARK   34  A    between atoms: _78  and  _81
REMARK   35  A    between atoms: _81  and  _82
REMARK   36  A    between atoms: _83  and  _85
REMARK   37  A    between atoms: _85  and  _86
REMARK   38  A    between atoms: _85  and  _88
REMARK   39  A    between atoms: _88  and  _89
REMARK   40  A    between atoms: _95  and  _97
REMARK   41  A    between atoms: _97  and  _98
REMARK   42  A    between atoms: _97  and  _100
REMARK   43  A    between atoms: _100  and  _101
REMARK   44  A    between atoms: _104  and  _106
REMARK   45  A    between atoms: _106  and  _107
REMARK   46  A    between atoms: _106  and  _109
REMARK   47  A    between atoms: _109  and  _110
REMARK   48  A    between atoms: _110  and  _111
REMARK   49  A    between atoms: _111  and  _112
REMARK   50  A    between atoms: _112  and  _113
REMARK   51  A    between atoms: _117  and  _119
REMARK   52  A    between atoms: _119  and  _120
REMARK   53  A    between atoms: _119  and  _122
REMARK   54  A    between atoms: _122  and  _123
REMARK   55  A    between atoms: _128  and  _129
REMARK   56  A    between atoms: _132  and  _133
REMARK   57  A    between atoms: _138  and  _140
REMARK   58  A    between atoms: _140  and  _141
REMARK   59  A    between atoms: _143  and  _145
REMARK   60  A    between atoms: _145  and  _146
REMARK   61  A    between atoms: _145  and  _148
REMARK   62  A    between atoms: _148  and  _149
REMARK   63  A    between atoms: _152  and  _154
REMARK   64  A    between atoms: _154  and  _155
REMARK   65  A    between atoms: _154  and  _157
REMARK   66  A    between atoms: _157  and  _158
REMARK   67  A    between atoms: _161  and  _163
REMARK   68  A    between atoms: _163  and  _164
REMARK   69  A    between atoms: _163  and  _166
REMARK   70  A    between atoms: _166  and  _167
REMARK   71  A    between atoms: _170  and  _172
REMARK   72  A    between atoms: _172  and  _173
REMARK   73  A    between atoms: _172  and  _175
REMARK   74  A    between atoms: _178  and  _180
REMARK   75  A    between atoms: _180  and  _181
REMARK   76  A    between atoms: _183  and  _185
REMARK   77  A    between atoms: _185  and  _186
REMARK   78  A    between atoms: _185  and  _188
REMARK   79  A    between atoms: _188  and  _189
REMARK   80  A    between atoms: _189  and  _190
REMARK   81  A    between atoms: _195  and  _197
REMARK   82  A    between atoms: _197  and  _198
REMARK   83  A    between atoms: _197  and  _200
REMARK   84  A    between atoms: _200  and  _201
REMARK   85  A    between atoms: _204  and  _206
REMARK   86  A    between atoms: _206  and  _207
REMARK   87  A    between atoms: _206  and  _209
REMARK   88  A    between atoms: _209  and  _210
REMARK   89  A    between atoms: _213  and  _215
REMARK   90  A    between atoms: _215  and  _216
REMARK   91  A    between atoms: _215  and  _218
REMARK   92  A    between atoms: _218  and  _219
REMARK   93  A    between atoms: _219  and  _220
REMARK   94  A    between atoms: _220  and  _221
REMARK   95  A    between atoms: _230  and  _232
REMARK   96  A    between atoms: _232  and  _233
REMARK   97  A    between atoms: _235  and  _237
REMARK   98  A    between atoms: _237  and  _238
REMARK   99  A    between atoms: _237  and  _240
REMARK  100  A    between atoms: _240  and  _241
REMARK  101  A    between atoms: _244  and  _246
REMARK  102  A    between atoms: _246  and  _247
REMARK  103  A    between atoms: _250  and  _252
REMARK  104  A    between atoms: _252  and  _253
REMARK  105  A    between atoms: _252  and  _255
REMARK  106  A    between atoms: _255  and  _256
REMARK  107  A    between atoms: _261  and  _262
REMARK  108  A    between atoms: _264  and  _266
REMARK  109  A    between atoms: _266  and  _267
REMARK  110  A    between atoms: _266  and  _269
REMARK  111  A    between atoms: _269  and  _270
REMARK  112  A    between atoms: _270  and  _271
REMARK  113  A    between atoms: _271  and  _272
REMARK  114  A    between atoms: _272  and  _273
REMARK  115  A    between atoms: _277  and  _279
REMARK  116  A    between atoms: _279  and  _280
REMARK  117  A    between atoms: _279  and  _282
REMARK  118  A    between atoms: _282  and  _283
REMARK  119  A    between atoms: _286  and  _288
REMARK  120  A    between atoms: _288  and  _289
REMARK  121  A    between atoms: _288  and  _291
REMARK  122  A    between atoms: _291  and  _292
REMARK  123  A    between atoms: _294  and  _296
REMARK  124  A    between atoms: _296  and  _297
REMARK  125  A    between atoms: _296  and  _299
REMARK  126  A    between atoms: _299  and  _300
REMARK  127  A    between atoms: _300  and  _415
REMARK  128  A    between atoms: _301  and  _303
REMARK  129  A    between atoms: _303  and  _304
REMARK  130  A    between atoms: _303  and  _306
REMARK  131  A    between atoms: _306  and  _307
REMARK  132  A    between atoms: _307  and  _308
REMARK  133  A    between atoms: _308  and  _309
REMARK  134  A    between atoms: _309  and  _310
REMARK  135  A    between atoms: _314  and  _316
REMARK  136  A    between atoms: _316  and  _317
REMARK  137  A    between atoms: _319  and  _321
REMARK  138  A    between atoms: _321  and  _322
REMARK  139  A    between atoms: _321  and  _324
REMARK  140  A    between atoms: _324  and  _325
REMARK  141  A    between atoms: _328  and  _330
REMARK  142  A    between atoms: _330  and  _331
REMARK  143  A    between atoms: _330  and  _333
REMARK  144  A    between atoms: _333  and  _334
REMARK  145  A    between atoms: _336  and  _338
REMARK  146  A    between atoms: _338  and  _339
REMARK  147  A    between atoms: _341  and  _343
REMARK  148  A    between atoms: _343  and  _344
REMARK  149  A    between atoms: _346  and  _348
REMARK  150  A    between atoms: _348  and  _349
REMARK  151  A    between atoms: _348  and  _351
REMARK  152  A    between atoms: _351  and  _352
REMARK  153  A    between atoms: _355  and  _357
REMARK  154  A    between atoms: _357  and  _358
REMARK  155  A    between atoms: _357  and  _360
REMARK  156  A    between atoms: _363  and  _365
REMARK  157  A    between atoms: _365  and  _366
REMARK  158  A    between atoms: _365  and  _368
REMARK  159  A    between atoms: _368  and  _369
REMARK  160  A    between atoms: _371  and  _373
REMARK  161  A    between atoms: _373  and  _374
REMARK  162  A    between atoms: _373  and  _376
REMARK  163  A    between atoms: _376  and  _377
REMARK  164  A    between atoms: _387  and  _389
REMARK  165  A    between atoms: _389  and  _390
REMARK  166  A    between atoms: _392  and  _394
REMARK  167  A    between atoms: _394  and  _395
REMARK  168  A    between atoms: _394  and  _397
REMARK  169  A    between atoms: _397  and  _398
REMARK  170  A    between atoms: _398  and  _399
REMARK  171  A    between atoms: _404  and  _406
REMARK  172  A    between atoms: _406  and  _407
REMARK  173  A    between atoms: _409  and  _411
REMARK  174  A    between atoms: _411  and  _412
REMARK  175  A    between atoms: _411  and  _414
REMARK  176  A    between atoms: _414  and  _415
REMARK  177  A    between atoms: _416  and  _418
REMARK  178  A    between atoms: _418  and  _419
REMARK  179  A    between atoms: _422  and  _424
REMARK  180  A    between atoms: _424  and  _425
REMARK  181  A    between atoms: _424  and  _427
REMARK  182  A    between atoms: _427  and  _428
REMARK  183  A    between atoms: _431  and  _433
REMARK  184  A    between atoms: _433  and  _434
REMARK  185  A    between atoms: _433  and  _436
REMARK  186  A    between atoms: _436  and  _437
REMARK  187  A    between atoms: _442  and  _444
REMARK  188  A    between atoms: _444  and  _445
REMARK  189  A    between atoms: _444  and  _447
REMARK  190  A    between atoms: _447  and  _448
REMARK  191  A    between atoms: _454  and  _456
REMARK  192  A    between atoms: _456  and  _457
REMARK  193  A    between atoms: _459  and  _461
REMARK  194  A    between atoms: _461  and  _462
REMARK  195  A    between atoms: _461  and  _464
REMARK  196  A    between atoms: _467  and  _469
REMARK  197  A    between atoms: _469  and  _470
REMARK  198  A    between atoms: _469  and  _472
REMARK  199  A    between atoms: _472  and  _473
REMARK  200  A    between atoms: _478  and  _479
REMARK                            x       y       z     vdW  Elec       q    Type
REMARK                         _______ _______ _______ _____ _____    ______ ____
ROOT
ATOM      1  O   HOH     1       8.860  33.743  35.311  0.00  0.00    +0.000 OA
ENDROOT
TORSDOF 0
REMARK  Name = ../refined-set-2016/4na9/4na9_pocket.pdb
REMARK  200 active torsions:
REMARK  status: ('A' for Active; 'I' for Inactive)
REMARK    1  A    between atoms: _1  and  _5
REMARK    2  A    between atoms: _5  and  _6
REMARK    3  A    between atoms: _5  and  _8
REMARK    4  A    between atoms: _8  and  _9
REMARK    5  A    between atoms: _12  and  _14
REMARK    6  A    between atoms: _14  and  _15
REMARK    7  A    between atoms: _14  and  _17
REMARK    8  A    between atoms: _20  and  _22
REMARK    9  A    between atoms: _22  and  _23
REMARK   10  A    between atoms: _22  and  _25
REMARK   11  A    between atoms: _25  and  _26
REMARK   12  A    between atoms: _26  and  _27
REMARK   13  A    between atoms: _32  and  _34
REMARK   14  A    between atoms: _34  and  _35
REMARK   15  A    between atoms: _34  and  _37
REMARK   16  A    between atoms: _37  and  _38
REMARK   17  A    between atoms: _41  and  _43
REMARK   18  A    between atoms: _43  and  _44
REMARK   19  A    between atoms: _43  and  _46
REMARK   20  A    between atoms: _46  and  _47
REMARK   21  A    between atoms: _47  and  _82
REMARK   22  A    between atoms: _48  and  _50
REMARK   23  A    between atoms: _50  and  _51
REMARK   24  A    between atoms: _53  and  _55
REMARK   25  A    between atoms: _55  and  _56
REMARK   26  A    between atoms: _59  and  _61
REMARK   27  A    between atoms: _61  and  _62
REMARK   28  A    between atoms: _65  and  _67
REMARK   29  A    between atoms: _67  and  _68
REMARK   30  A    between atoms: _67  and  _70
REMARK   31  A    between atoms: _70  and  _71
REMARK   32  A    between atoms: _76  and  _78
REMARK   33  A    between atoms: _78  and  _79
REMARK   34  A    between atoms: _78  and  _81
REMARK   35  A    between atoms: _81  and  _82
REMARK   36  A    between atoms: _83  and  _85
REMARK   37  A    between atoms: _85  and  _86
REMARK   38  A    between atoms: _85  and  _88
REMARK   39  A    between atoms: _88  and  _89
REMARK   40  A    between atoms: _95  and  _97
REMARK   41  A    between atoms: _97  and  _98
REMARK   42  A    between atoms: _97  and  _100
REMARK   43  A    between atoms: _100  and  _101
REMARK   44  A    between atoms: _104  and  _106
REMARK   45  A    between atoms: _106  and  _107
REMARK   46  A    between atoms: _106  and  _109
REMARK   47  A    between atoms: _109  and  _110
REMARK   48  A    between atoms: _110  and  _111
REMARK   49  A    between atoms: _111  and  _112
REMARK   50  A    between atoms: _112  and  _113
REMARK   51  A    between atoms: _117  and  _119
REMARK   52  A    between atoms: _119  and  _120
REMARK   53  A    between atoms: _119  and  _122
REMARK   54  A    between atoms: _122  and  _123
REMARK   55  A    between atoms: _128  and  _129
REMARK   56  A    between atoms: _132  and  _133
REMARK   57  A    between atoms: _138  and  _140
REMARK   58  A    between atoms: _140  and  _141
REMARK   59  A    between atoms: _143  and  _145
REMARK   60  A    between atoms: _145  and  _146
REMARK   61  A    between atoms: _145  and  _148
REMARK   62  A    between atoms: _148  and  _149
REMARK   63  A    between atoms: _152  and  _154
REMARK   64  A    between atoms: _154  and  _155
REMARK   65  A    between atoms: _154  and  _157
REMARK   66  A    between atoms: _157  and  _158
REMARK   67  A    between atoms: _161  and  _163
REMARK   68  A    between atoms: _163  and  _164
REMARK   69  A    between atoms: _163  and  _166
REMARK   70  A    between atoms: _166  and  _167
REMARK   71  A    between atoms: _170  and  _172
REMARK   72  A    between atoms: _172  and  _173
REMARK   73  A    between atoms: _172  and  _175
REMARK   74  A    between atoms: _178  and  _180
REMARK   75  A    between atoms: _180  and  _181
REMARK   76  A    between atoms: _183  and  _185
REMARK   77  A    between atoms: _185  and  _186
REMARK   78  A    between atoms: _185  and  _188
REMARK   79  A    between atoms: _188  and  _189
REMARK   80  A    between atoms: _189  and  _190
REMARK   81  A    between atoms: _195  and  _197
REMARK   82  A    between atoms: _197  and  _198
REMARK   83  A    between atoms: _197  and  _200
REMARK   84  A    between atoms: _200  and  _201
REMARK   85  A    between atoms: _204  and  _206
REMARK   86  A    between atoms: _206  and  _207
REMARK   87  A    between atoms: _206  and  _209
REMARK   88  A    between atoms: _209  and  _210
REMARK   89  A    between atoms: _213  and  _215
REMARK   90  A    between atoms: _215  and  _216
REMARK   91  A    between atoms: _215  and  _218
REMARK   92  A    between atoms: _218  and  _219
REMARK   93  A    between atoms: _219  and  _220
REMARK   94  A    between atoms: _220  and  _221
REMARK   95  A    between atoms: _230  and  _232
REMARK   96  A    between atoms: _232  and  _233
REMARK   97  A    between atoms: _235  and  _237
REMARK   98  A    between atoms: _237  and  _238
REMARK   99  A    between atoms: _237  and  _240
REMARK  100  A    between atoms: _240  and  _241
REMARK  101  A    between atoms: _244  and  _246
REMARK  102  A    between atoms: _246  and  _247
REMARK  103  A    between atoms: _250  and  _252
REMARK  104  A    between atoms: _252  and  _253
REMARK  105  A    between atoms: _252  and  _255
REMARK  106  A    between atoms: _255  and  _256
REMARK  107  A    between atoms: _261  and  _262
REMARK  108  A    between atoms: _264  and  _266
REMARK  109  A    between atoms: _266  and  _267
REMARK  110  A    between atoms: _266  and  _269
REMARK  111  A    between atoms: _269  and  _270
REMARK  112  A    between atoms: _270  and  _271
REMARK  113  A    between atoms: _271  and  _272
REMARK  114  A    between atoms: _272  and  _273
REMARK  115  A    between atoms: _277  and  _279
REMARK  116  A    between atoms: _279  and  _280
REMARK  117  A    between atoms: _279  and  _282
REMARK  118  A    between atoms: _282  and  _283
REMARK  119  A    between atoms: _286  and  _288
REMARK  120  A    between atoms: _288  and  _289
REMARK  121  A    between atoms: _288  and  _291
REMARK  122  A    between atoms: _291  and  _292
REMARK  123  A    between atoms: _294  and  _296
REMARK  124  A    between atoms: _296  and  _297
REMARK  125  A    between atoms: _296  and  _299
REMARK  126  A    between atoms: _299  and  _300
REMARK  127  A    between atoms: _300  and  _415
REMARK  128  A    between atoms: _301  and  _303
REMARK  129  A    between atoms: _303  and  _304
REMARK  130  A    between atoms: _303  and  _306
REMARK  131  A    between atoms: _306  and  _307
REMARK  132  A    between atoms: _307  and  _308
REMARK  133  A    between atoms: _308  and  _309
REMARK  134  A    between atoms: _309  and  _310
REMARK  135  A    between atoms: _314  and  _316
REMARK  136  A    between atoms: _316  and  _317
REMARK  137  A    between atoms: _319  and  _321
REMARK  138  A    between atoms: _321  and  _322
REMARK  139  A    between atoms: _321  and  _324
REMARK  140  A    between atoms: _324  and  _325
REMARK  141  A    between atoms: _328  and  _330
REMARK  142  A    between atoms: _330  and  _331
REMARK  143  A    between atoms: _330  and  _333
REMARK  144  A    between atoms: _333  and  _334
REMARK  145  A    between atoms: _336  and  _338
REMARK  146  A    between atoms: _338  and  _339
REMARK  147  A    between atoms: _341  and  _343
REMARK  148  A    between atoms: _343  and  _344
REMARK  149  A    between atoms: _346  and  _348
REMARK  150  A    between atoms: _348  and  _349
REMARK  151  A    between atoms: _348  and  _351
REMARK  152  A    between atoms: _351  and  _352
REMARK  153  A    between atoms: _355  and  _357
REMARK  154  A    between atoms: _357  and  _358
REMARK  155  A    between atoms: _357  and  _360
REMARK  156  A    between atoms: _363  and  _365
REMARK  157  A    between atoms: _365  and  _366
REMARK  158  A    between atoms: _365  and  _368
REMARK  159  A    between atoms: _368  and  _369
REMARK  160  A    between atoms: _371  and  _373
REMARK  161  A    between atoms: _373  and  _374
REMARK  162  A    between atoms: _373  and  _376
REMARK  163  A    between atoms: _376  and  _377
REMARK  164  A    between atoms: _387  and  _389
REMARK  165  A    between atoms: _389  and  _390
REMARK  166  A    between atoms: _392  and  _394
REMARK  167  A    between atoms: _394  and  _395
REMARK  168  A    between atoms: _394  and  _397
REMARK  169  A    between atoms: _397  and  _398
REMARK  170  A    between atoms: _398  and  _399
REMARK  171  A    between atoms: _404  and  _406
REMARK  172  A    between atoms: _406  and  _407
REMARK  173  A    between atoms: _409  and  _411
REMARK  174  A    between atoms: _411  and  _412
REMARK  175  A    between atoms: _411  and  _414
REMARK  176  A    between atoms: _414  and  _415
REMARK  177  A    between atoms: _416  and  _418
REMARK  178  A    between atoms: _418  and  _419
REMARK  179  A    between atoms: _422  and  _424
REMARK  180  A    between atoms: _424  and  _425
REMARK  181  A    between atoms: _424  and  _427
REMARK  182  A    between atoms: _427  and  _428
REMARK  183  A    between atoms: _431  and  _433
REMARK  184  A    between atoms: _433  and  _434
REMARK  185  A    between atoms: _433  and  _436
REMARK  186  A    between atoms: _436  and  _437
REMARK  187  A    between atoms: _442  and  _444
REMARK  188  A    between atoms: _444  and  _445
REMARK  189  A    between atoms: _444  and  _447
REMARK  190  A    between atoms: _447  and  _448
REMARK  191  A    between atoms: _454  and  _456
REMARK  192  A    between atoms: _456  and  _457
REMARK  193  A    between atoms: _459  and  _461
REMARK  194  A    between atoms: _461  and  _462
REMARK  195  A    between atoms: _461  and  _464
REMARK  196  A    between atoms: _467  and  _469
REMARK  197  A    between atoms: _469  and  _470
REMARK  198  A    between atoms: _469  and  _472
REMARK  199  A    between atoms: _472  and  _473
REMARK  200  A    between atoms: _478  and  _479
REMARK                            x       y       z     vdW  Elec       q    Type
REMARK                         _______ _______ _______ _____ _____    ______ ____
ROOT
ATOM      1  O   HOH     1       8.647  43.293  16.093  0.00  0.00    +0.000 OA
ENDROOT
TORSDOF 0
REMARK  Name = ../refined-set-2016/4na9/4na9_pocket.pdb
REMARK  200 active torsions:
REMARK  status: ('A' for Active; 'I' for Inactive)
REMARK    1  A    between atoms: _1  and  _5
REMARK    2  A    between atoms: _5  and  _6
REMARK    3  A    between atoms: _5  and  _8
REMARK    4  A    between atoms: _8  and  _9
REMARK    5  A    between atoms: _12  and  _14
REMARK    6  A    between atoms: _14  and  _15
REMARK    7  A    between atoms: _14  and  _17
REMARK    8  A    between atoms: _20  and  _22
REMARK    9  A    between atoms: _22  and  _23
REMARK   10  A    between atoms: _22  and  _25
REMARK   11  A    between atoms: _25  and  _26
REMARK   12  A    between atoms: _26  and  _27
REMARK   13  A    between atoms: _32  and  _34
REMARK   14  A    between atoms: _34  and  _35
REMARK   15  A    between atoms: _34  and  _37
REMARK   16  A    between atoms: _37  and  _38
REMARK   17  A    between atoms: _41  and  _43
REMARK   18  A    between atoms: _43  and  _44
REMARK   19  A    between atoms: _43  and  _46
REMARK   20  A    between atoms: _46  and  _47
REMARK   21  A    between atoms: _47  and  _82
REMARK   22  A    between atoms: _48  and  _50
REMARK   23  A    between atoms: _50  and  _51
REMARK   24  A    between atoms: _53  and  _55
REMARK   25  A    between atoms: _55  and  _56
REMARK   26  A    between atoms: _59  and  _61
REMARK   27  A    between atoms: _61  and  _62
REMARK   28  A    between atoms: _65  and  _67
REMARK   29  A    between atoms: _67  and  _68
REMARK   30  A    between atoms: _67  and  _70
REMARK   31  A    between atoms: _70  and  _71
REMARK   32  A    between atoms: _76  and  _78
REMARK   33  A    between atoms: _78  and  _79
REMARK   34  A    between atoms: _78  and  _81
REMARK   35  A    between atoms: _81  and  _82
REMARK   36  A    between atoms: _83  and  _85
REMARK   37  A    between atoms: _85  and  _86
REMARK   38  A    between atoms: _85  and  _88
REMARK   39  A    between atoms: _88  and  _89
REMARK   40  A    between atoms: _95  and  _97
REMARK   41  A    between atoms: _97  and  _98
REMARK   42  A    between atoms: _97  and  _100
REMARK   43  A    between atoms: _100  and  _101
REMARK   44  A    between atoms: _104  and  _106
REMARK   45  A    between atoms: _106  and  _107
REMARK   46  A    between atoms: _106  and  _109
REMARK   47  A    between atoms: _109  and  _110
REMARK   48  A    between atoms: _110  and  _111
REMARK   49  A    between atoms: _111  and  _112
REMARK   50  A    between atoms: _112  and  _113
REMARK   51  A    between atoms: _117  and  _119
REMARK   52  A    between atoms: _119  and  _120
REMARK   53  A    between atoms: _119  and  _122
REMARK   54  A    between atoms: _122  and  _123
REMARK   55  A    between atoms: _128  and  _129
REMARK   56  A    between atoms: _132  and  _133
REMARK   57  A    between atoms: _138  and  _140
REMARK   58  A    between atoms: _140  and  _141
REMARK   59  A    between atoms: _143  and  _145
REMARK   60  A    between atoms: _145  and  _146
REMARK   61  A    between atoms: _145  and  _148
REMARK   62  A    between atoms: _148  and  _149
REMARK   63  A    between atoms: _152  and  _154
REMARK   64  A    between atoms: _154  and  _155
REMARK   65  A    between atoms: _154  and  _157
REMARK   66  A    between atoms: _157  and  _158
REMARK   67  A    between atoms: _161  and  _163
REMARK   68  A    between atoms: _163  and  _164
REMARK   69  A    between atoms: _163  and  _166
REMARK   70  A    between atoms: _166  and  _167
REMARK   71  A    between atoms: _170  and  _172
REMARK   72  A    between atoms: _172  and  _173
REMARK   73  A    between atoms: _172  and  _175
REMARK   74  A    between atoms: _178  and  _180
REMARK   75  A    between atoms: _180  and  _181
REMARK   76  A    between atoms: _183  and  _185
REMARK   77  A    between atoms: _185  and  _186
REMARK   78  A    between atoms: _185  and  _188
REMARK   79  A    between atoms: _188  and  _189
REMARK   80  A    between atoms: _189  and  _190
REMARK   81  A    between atoms: _195  and  _197
REMARK   82  A    between atoms: _197  and  _198
REMARK   83  A    between atoms: _197  and  _200
REMARK   84  A    between atoms: _200  and  _201
REMARK   85  A    between atoms: _204  and  _206
REMARK   86  A    between atoms: _206  and  _207
REMARK   87  A    between atoms: _206  and  _209
REMARK   88  A    between atoms: _209  and  _210
REMARK   89  A    between atoms: _213  and  _215
REMARK   90  A    between atoms: _215  and  _216
REMARK   91  A    between atoms: _215  and  _218
REMARK   92  A    between atoms: _218  and  _219
REMARK   93  A    between atoms: _219  and  _220
REMARK   94  A    between atoms: _220  and  _221
REMARK   95  A    between atoms: _230  and  _232
REMARK   96  A    between atoms: _232  and  _233
REMARK   97  A    between atoms: _235  and  _237
REMARK   98  A    between atoms: _237  and  _238
REMARK   99  A    between atoms: _237  and  _240
REMARK  100  A    between atoms: _240  and  _241
REMARK  101  A    between atoms: _244  and  _246
REMARK  102  A    between atoms: _246  and  _247
REMARK  103  A    between atoms: _250  and  _252
REMARK  104  A    between atoms: _252  and  _253
REMARK  105  A    between atoms: _252  and  _255
REMARK  106  A    between atoms: _255  and  _256
REMARK  107  A    between atoms: _261  and  _262
REMARK  108  A    between atoms: _264  and  _266
REMARK  109  A    between atoms: _266  and  _267
REMARK  110  A    between atoms: _266  and  _269
REMARK  111  A    between atoms: _269  and  _270
REMARK  112  A    between atoms: _270  and  _271
REMARK  113  A    between atoms: _271  and  _272
REMARK  114  A    between atoms: _272  and  _273
REMARK  115  A    between atoms: _277  and  _279
REMARK  116  A    between atoms: _279  and  _280
REMARK  117  A    between atoms: _279  and  _282
REMARK  118  A    between atoms: _282  and  _283
REMARK  119  A    between atoms: _286  and  _288
REMARK  120  A    between atoms: _288  and  _289
REMARK  121  A    between atoms: _288  and  _291
REMARK  122  A    between atoms: _291  and  _292
REMARK  123  A    between atoms: _294  and  _296
REMARK  124  A    between atoms: _296  and  _297
REMARK  125  A    between atoms: _296  and  _299
REMARK  126  A    between atoms: _299  and  _300
REMARK  127  A    between atoms: _300  and  _415
REMARK  128  A    between atoms: _301  and  _303
REMARK  129  A    between atoms: _303  and  _304
REMARK  130  A    between atoms: _303  and  _306
REMARK  131  A    between atoms: _306  and  _307
REMARK  132  A    between atoms: _307  and  _308
REMARK  133  A    between atoms: _308  and  _309
REMARK  134  A    between atoms: _309  and  _310
REMARK  135  A    between atoms: _314  and  _316
REMARK  136  A    between atoms: _316  and  _317
REMARK  137  A    between atoms: _319  and  _321
REMARK  138  A    between atoms: _321  and  _322
REMARK  139  A    between atoms: _321  and  _324
REMARK  140  A    between atoms: _324  and  _325
REMARK  141  A    between atoms: _328  and  _330
REMARK  142  A    between atoms: _330  and  _331
REMARK  143  A    between atoms: _330  and  _333
REMARK  144  A    between atoms: _333  and  _334
REMARK  145  A    between atoms: _336  and  _338
REMARK  146  A    between atoms: _338  and  _339
REMARK  147  A    between atoms: _341  and  _343
REMARK  148  A    between atoms: _343  and  _344
REMARK  149  A    between atoms: _346  and  _348
REMARK  150  A    between atoms: _348  and  _349
REMARK  151  A    between atoms: _348  and  _351
REMARK  152  A    between atoms: _351  and  _352
REMARK  153  A    between atoms: _355  and  _357
REMARK  154  A    between atoms: _357  and  _358
REMARK  155  A    between atoms: _357  and  _360
REMARK  156  A    between atoms: _363  and  _365
REMARK  157  A    between atoms: _365  and  _366
REMARK  158  A    between atoms: _365  and  _368
REMARK  159  A    between atoms: _368  and  _369
REMARK  160  A    between atoms: _371  and  _373
REMARK  161  A    between atoms: _373  and  _374
REMARK  162  A    between atoms: _373  and  _376
REMARK  163  A    between atoms: _376  and  _377
REMARK  164  A    between atoms: _387  and  _389
REMARK  165  A    between atoms: _389  and  _390
REMARK  166  A    between atoms: _392  and  _394
REMARK  167  A    between atoms: _394  and  _395
REMARK  168  A    between atoms: _394  and  _397
REMARK  169  A    between atoms: _397  and  _398
REMARK  170  A    between atoms: _398  and  _399
REMARK  171  A    between atoms: _404  and  _406
REMARK  172  A    between atoms: _406  and  _407
REMARK  173  A    between atoms: _409  and  _411
REMARK  174  A    between atoms: _411  and  _412
REMARK  175  A    between atoms: _411  and  _414
REMARK  176  A    between atoms: _414  and  _415
REMARK  177  A    between atoms: _416  and  _418
REMARK  178  A    between atoms: _418  and  _419
REMARK  179  A    between atoms: _422  and  _424
REMARK  180  A    between atoms: _424  and  _425
REMARK  181  A    between atoms: _424  and  _427
REMARK  182  A    between atoms: _427  and  _428
REMARK  183  A    between atoms: _431  and  _433
REMARK  184  A    between atoms: _433  and  _434
REMARK  185  A    between atoms: _433  and  _436
REMARK  186  A    between atoms: _436  and  _437
REMARK  187  A    between atoms: _442  and  _444
REMARK  188  A    between atoms: _444  and  _445
REMARK  189  A    between atoms: _444  and  _447
REMARK  190  A    between atoms: _447  and  _448
REMARK  191  A    between atoms: _454  and  _456
REMARK  192  A    between atoms: _456  and  _457
REMARK  193  A    between atoms: _459  and  _461
REMARK  194  A    between atoms: _461  and  _462
REMARK  195  A    between atoms: _461  and  _464
REMARK  196  A    between atoms: _467  and  _469
REMARK  197  A    between atoms: _469  and  _470
REMARK  198  A    between atoms: _469  and  _472
REMARK  199  A    between atoms: _472  and  _473
REMARK  200  A    between atoms: _478  and  _479
REMARK                            x       y       z     vdW  Elec       q    Type
REMARK                         _______ _______ _______ _____ _____    ______ ____
ROOT
ATOM      1  O   HOH     1      15.733  44.820  19.178  0.00  0.00    +0.000 OA
ENDROOT
TORSDOF 0
REMARK  Name = ../refined-set-2016/4na9/4na9_pocket.pdb
REMARK  200 active torsions:
REMARK  status: ('A' for Active; 'I' for Inactive)
REMARK    1  A    between atoms: _1  and  _5
REMARK    2  A    between atoms: _5  and  _6
REMARK    3  A    between atoms: _5  and  _8
REMARK    4  A    between atoms: _8  and  _9
REMARK    5  A    between atoms: _12  and  _14
REMARK    6  A    between atoms: _14  and  _15
REMARK    7  A    between atoms: _14  and  _17
REMARK    8  A    between atoms: _20  and  _22
REMARK    9  A    between atoms: _22  and  _23
REMARK   10  A    between atoms: _22  and  _25
REMARK   11  A    between atoms: _25  and  _26
REMARK   12  A    between atoms: _26  and  _27
REMARK   13  A    between atoms: _32  and  _34
REMARK   14  A    between atoms: _34  and  _35
REMARK   15  A    between atoms: _34  and  _37
REMARK   16  A    between atoms: _37  and  _38
REMARK   17  A    between atoms: _41  and  _43
REMARK   18  A    between atoms: _43  and  _44
REMARK   19  A    between atoms: _43  and  _46
REMARK   20  A    between atoms: _46  and  _47
REMARK   21  A    between atoms: _47  and  _82
REMARK   22  A    between atoms: _48  and  _50
REMARK   23  A    between atoms: _50  and  _51
REMARK   24  A    between atoms: _53  and  _55
REMARK   25  A    between atoms: _55  and  _56
REMARK   26  A    between atoms: _59  and  _61
REMARK   27  A    between atoms: _61  and  _62
REMARK   28  A    between atoms: _65  and  _67
REMARK   29  A    between atoms: _67  and  _68
REMARK   30  A    between atoms: _67  and  _70
REMARK   31  A    between atoms: _70  and  _71
REMARK   32  A    between atoms: _76  and  _78
REMARK   33  A    between atoms: _78  and  _79
REMARK   34  A    between atoms: _78  and  _81
REMARK   35  A    between atoms: _81  and  _82
REMARK   36  A    between atoms: _83  and  _85
REMARK   37  A    between atoms: _85  and  _86
REMARK   38  A    between atoms: _85  and  _88
REMARK   39  A    between atoms: _88  and  _89
REMARK   40  A    between atoms: _95  and  _97
REMARK   41  A    between atoms: _97  and  _98
REMARK   42  A    between atoms: _97  and  _100
REMARK   43  A    between atoms: _100  and  _101
REMARK   44  A    between atoms: _104  and  _106
REMARK   45  A    between atoms: _106  and  _107
REMARK   46  A    between atoms: _106  and  _109
REMARK   47  A    between atoms: _109  and  _110
REMARK   48  A    between atoms: _110  and  _111
REMARK   49  A    between atoms: _111  and  _112
REMARK   50  A    between atoms: _112  and  _113
REMARK   51  A    between atoms: _117  and  _119
REMARK   52  A    between atoms: _119  and  _120
REMARK   53  A    between atoms: _119  and  _122
REMARK   54  A    between atoms: _122  and  _123
REMARK   55  A    between atoms: _128  and  _129
REMARK   56  A    between atoms: _132  and  _133
REMARK   57  A    between atoms: _138  and  _140
REMARK   58  A    between atoms: _140  and  _141
REMARK   59  A    between atoms: _143  and  _145
REMARK   60  A    between atoms: _145  and  _146
REMARK   61  A    between atoms: _145  and  _148
REMARK   62  A    between atoms: _148  and  _149
REMARK   63  A    between atoms: _152  and  _154
REMARK   64  A    between atoms: _154  and  _155
REMARK   65  A    between atoms: _154  and  _157
REMARK   66  A    between atoms: _157  and  _158
REMARK   67  A    between atoms: _161  and  _163
REMARK   68  A    between atoms: _163  and  _164
REMARK   69  A    between atoms: _163  and  _166
REMARK   70  A    between atoms: _166  and  _167
REMARK   71  A    between atoms: _170  and  _172
REMARK   72  A    between atoms: _172  and  _173
REMARK   73  A    between atoms: _172  and  _175
REMARK   74  A    between atoms: _178  and  _180
REMARK   75  A    between atoms: _180  and  _181
REMARK   76  A    between atoms: _183  and  _185
REMARK   77  A    between atoms: _185  and  _186
REMARK   78  A    between atoms: _185  and  _188
REMARK   79  A    between atoms: _188  and  _189
REMARK   80  A    between atoms: _189  and  _190
REMARK   81  A    between atoms: _195  and  _197
REMARK   82  A    between atoms: _197  and  _198
REMARK   83  A    between atoms: _197  and  _200
REMARK   84  A    between atoms: _200  and  _201
REMARK   85  A    between atoms: _204  and  _206
REMARK   86  A    between atoms: _206  and  _207
REMARK   87  A    between atoms: _206  and  _209
REMARK   88  A    between atoms: _209  and  _210
REMARK   89  A    between atoms: _213  and  _215
REMARK   90  A    between atoms: _215  and  _216
REMARK   91  A    between atoms: _215  and  _218
REMARK   92  A    between atoms: _218  and  _219
REMARK   93  A    between atoms: _219  and  _220
REMARK   94  A    between atoms: _220  and  _221
REMARK   95  A    between atoms: _230  and  _232
REMARK   96  A    between atoms: _232  and  _233
REMARK   97  A    between atoms: _235  and  _237
REMARK   98  A    between atoms: _237  and  _238
REMARK   99  A    between atoms: _237  and  _240
REMARK  100  A    between atoms: _240  and  _241
REMARK  101  A    between atoms: _244  and  _246
REMARK  102  A    between atoms: _246  and  _247
REMARK  103  A    between atoms: _250  and  _252
REMARK  104  A    between atoms: _252  and  _253
REMARK  105  A    between atoms: _252  and  _255
REMARK  106  A    between atoms: _255  and  _256
REMARK  107  A    between atoms: _261  and  _262
REMARK  108  A    between atoms: _264  and  _266
REMARK  109  A    between atoms: _266  and  _267
REMARK  110  A    between atoms: _266  and  _269
REMARK  111  A    between atoms: _269  and  _270
REMARK  112  A    between atoms: _270  and  _271
REMARK  113  A    between atoms: _271  and  _272
REMARK  114  A    between atoms: _272  and  _273
REMARK  115  A    between atoms: _277  and  _279
REMARK  116  A    between atoms: _279  and  _280
REMARK  117  A    between atoms: _279  and  _282
REMARK  118  A    between atoms: _282  and  _283
REMARK  119  A    between atoms: _286  and  _288
REMARK  120  A    between atoms: _288  and  _289
REMARK  121  A    between atoms: _288  and  _291
REMARK  122  A    between atoms: _291  and  _292
REMARK  123  A    between atoms: _294  and  _296
REMARK  124  A    between atoms: _296  and  _297
REMARK  125  A    between atoms: _296  and  _299
REMARK  126  A    between atoms: _299  and  _300
REMARK  127  A    between atoms: _300  and  _415
REMARK  128  A    between atoms: _301  and  _303
REMARK  129  A    between atoms: _303  and  _304
REMARK  130  A    between atoms: _303  and  _306
REMARK  131  A    between atoms: _306  and  _307
REMARK  132  A    between atoms: _307  and  _308
REMARK  133  A    between atoms: _308  and  _309
REMARK  134  A    between atoms: _309  and  _310
REMARK  135  A    between atoms: _314  and  _316
REMARK  136  A    between atoms: _316  and  _317
REMARK  137  A    between atoms: _319  and  _321
REMARK  138  A    between atoms: _321  and  _322
REMARK  139  A    between atoms: _321  and  _324
REMARK  140  A    between atoms: _324  and  _325
REMARK  141  A    between atoms: _328  and  _330
REMARK  142  A    between atoms: _330  and  _331
REMARK  143  A    between atoms: _330  and  _333
REMARK  144  A    between atoms: _333  and  _334
REMARK  145  A    between atoms: _336  and  _338
REMARK  146  A    between atoms: _338  and  _339
REMARK  147  A    between atoms: _341  and  _343
REMARK  148  A    between atoms: _343  and  _344
REMARK  149  A    between atoms: _346  and  _348
REMARK  150  A    between atoms: _348  and  _349
REMARK  151  A    between atoms: _348  and  _351
REMARK  152  A    between atoms: _351  and  _352
REMARK  153  A    between atoms: _355  and  _357
REMARK  154  A    between atoms: _357  and  _358
REMARK  155  A    between atoms: _357  and  _360
REMARK  156  A    between atoms: _363  and  _365
REMARK  157  A    between atoms: _365  and  _366
REMARK  158  A    between atoms: _365  and  _368
REMARK  159  A    between atoms: _368  and  _369
REMARK  160  A    between atoms: _371  and  _373
REMARK  161  A    between atoms: _373  and  _374
REMARK  162  A    between atoms: _373  and  _376
REMARK  163  A    between atoms: _376  and  _377
REMARK  164  A    between atoms: _387  and  _389
REMARK  165  A    between atoms: _389  and  _390
REMARK  166  A    between atoms: _392  and  _394
REMARK  167  A    between atoms: _394  and  _395
REMARK  168  A    between atoms: _394  and  _397
REMARK  169  A    between atoms: _397  and  _398
REMARK  170  A    between atoms: _398  and  _399
REMARK  171  A    between atoms: _404  and  _406
REMARK  172  A    between atoms: _406  and  _407
REMARK  173  A    between atoms: _409  and  _411
REMARK  174  A    between atoms: _411  and  _412
REMARK  175  A    between atoms: _411  and  _414
REMARK  176  A    between atoms: _414  and  _415
REMARK  177  A    between atoms: _416  and  _418
REMARK  178  A    between atoms: _418  and  _419
REMARK  179  A    between atoms: _422  and  _424
REMARK  180  A    between atoms: _424  and  _425
REMARK  181  A    between atoms: _424  and  _427
REMARK  182  A    between atoms: _427  and  _428
REMARK  183  A    between atoms: _431  and  _433
REMARK  184  A    between atoms: _433  and  _434
REMARK  185  A    between atoms: _433  and  _436
REMARK  186  A    between atoms: _436  and  _437
REMARK  187  A    between atoms: _442  and  _444
REMARK  188  A    between atoms: _444  and  _445
REMARK  189  A    between atoms: _444  and  _447
REMARK  190  A    between atoms: _447  and  _448
REMARK  191  A    between atoms: _454  and  _456
REMARK  192  A    between atoms: _456  and  _457
REMARK  193  A    between atoms: _459  and  _461
REMARK  194  A    between atoms: _461  and  _462
REMARK  195  A    between atoms: _461  and  _464
REMARK  196  A    between atoms: _467  and  _469
REMARK  197  A    between atoms: _469  and  _470
REMARK  198  A    between atoms: _469  and  _472
REMARK  199  A    between atoms: _472  and  _473
REMARK  200  A    between atoms: _478  and  _479
REMARK                            x       y       z     vdW  Elec       q    Type
REMARK                         _______ _______ _______ _____ _____    ______ ____
ROOT
ATOM      1  O   HOH     1       9.547  45.751  16.469  0.00  0.00    +0.000 OA
ENDROOT
TORSDOF 0
REMARK  Name = ../refined-set-2016/4na9/4na9_pocket.pdb
REMARK  200 active torsions:
REMARK  status: ('A' for Active; 'I' for Inactive)
REMARK    1  A    between atoms: _1  and  _5
REMARK    2  A    between atoms: _5  and  _6
REMARK    3  A    between atoms: _5  and  _8
REMARK    4  A    between atoms: _8  and  _9
REMARK    5  A    between atoms: _12  and  _14
REMARK    6  A    between atoms: _14  and  _15
REMARK    7  A    between atoms: _14  and  _17
REMARK    8  A    between atoms: _20  and  _22
REMARK    9  A    between atoms: _22  and  _23
REMARK   10  A    between atoms: _22  and  _25
REMARK   11  A    between atoms: _25  and  _26
REMARK   12  A    between atoms: _26  and  _27
REMARK   13  A    between atoms: _32  and  _34
REMARK   14  A    between atoms: _34  and  _35
REMARK   15  A    between atoms: _34  and  _37
REMARK   16  A    between atoms: _37  and  _38
REMARK   17  A    between atoms: _41  and  _43
REMARK   18  A    between atoms: _43  and  _44
REMARK   19  A    between atoms: _43  and  _46
REMARK   20  A    between atoms: _46  and  _47
REMARK   21  A    between atoms: _47  and  _82
REMARK   22  A    between atoms: _48  and  _50
REMARK   23  A    between atoms: _50  and  _51
REMARK   24  A    between atoms: _53  and  _55
REMARK   25  A    between atoms: _55  and  _56
REMARK   26  A    between atoms: _59  and  _61
REMARK   27  A    between atoms: _61  and  _62
REMARK   28  A    between atoms: _65  and  _67
REMARK   29  A    between atoms: _67  and  _68
REMARK   30  A    between atoms: _67  and  _70
REMARK   31  A    between atoms: _70  and  _71
REMARK   32  A    between atoms: _76  and  _78
REMARK   33  A    between atoms: _78  and  _79
REMARK   34  A    between atoms: _78  and  _81
REMARK   35  A    between atoms: _81  and  _82
REMARK   36  A    between atoms: _83  and  _85
REMARK   37  A    between atoms: _85  and  _86
REMARK   38  A    between atoms: _85  and  _88
REMARK   39  A    between atoms: _88  and  _89
REMARK   40  A    between atoms: _95  and  _97
REMARK   41  A    between atoms: _97  and  _98
REMARK   42  A    between atoms: _97  and  _100
REMARK   43  A    between atoms: _100  and  _101
REMARK   44  A    between atoms: _104  and  _106
REMARK   45  A    between atoms: _106  and  _107
REMARK   46  A    between atoms: _106  and  _109
REMARK   47  A    between atoms: _109  and  _110
REMARK   48  A    between atoms: _110  and  _111
REMARK   49  A    between atoms: _111  and  _112
REMARK   50  A    between atoms: _112  and  _113
REMARK   51  A    between atoms: _117  and  _119
REMARK   52  A    between atoms: _119  and  _120
REMARK   53  A    between atoms: _119  and  _122
REMARK   54  A    between atoms: _122  and  _123
REMARK   55  A    between atoms: _128  and  _129
REMARK   56  A    between atoms: _132  and  _133
REMARK   57  A    between atoms: _138  and  _140
REMARK   58  A    between atoms: _140  and  _141
REMARK   59  A    between atoms: _143  and  _145
REMARK   60  A    between atoms: _145  and  _146
REMARK   61  A    between atoms: _145  and  _148
REMARK   62  A    between atoms: _148  and  _149
REMARK   63  A    between atoms: _152  and  _154
REMARK   64  A    between atoms: _154  and  _155
REMARK   65  A    between atoms: _154  and  _157
REMARK   66  A    between atoms: _157  and  _158
REMARK   67  A    between atoms: _161  and  _163
REMARK   68  A    between atoms: _163  and  _164
REMARK   69  A    between atoms: _163  and  _166
REMARK   70  A    between atoms: _166  and  _167
REMARK   71  A    between atoms: _170  and  _172
REMARK   72  A    between atoms: _172  and  _173
REMARK   73  A    between atoms: _172  and  _175
REMARK   74  A    between atoms: _178  and  _180
REMARK   75  A    between atoms: _180  and  _181
REMARK   76  A    between atoms: _183  and  _185
REMARK   77  A    between atoms: _185  and  _186
REMARK   78  A    between atoms: _185  and  _188
REMARK   79  A    between atoms: _188  and  _189
REMARK   80  A    between atoms: _189  and  _190
REMARK   81  A    between atoms: _195  and  _197
REMARK   82  A    between atoms: _197  and  _198
REMARK   83  A    between atoms: _197  and  _200
REMARK   84  A    between atoms: _200  and  _201
REMARK   85  A    between atoms: _204  and  _206
REMARK   86  A    between atoms: _206  and  _207
REMARK   87  A    between atoms: _206  and  _209
REMARK   88  A    between atoms: _209  and  _210
REMARK   89  A    between atoms: _213  and  _215
REMARK   90  A    between atoms: _215  and  _216
REMARK   91  A    between atoms: _215  and  _218
REMARK   92  A    between atoms: _218  and  _219
REMARK   93  A    between atoms: _219  and  _220
REMARK   94  A    between atoms: _220  and  _221
REMARK   95  A    between atoms: _230  and  _232
REMARK   96  A    between atoms: _232  and  _233
REMARK   97  A    between atoms: _235  and  _237
REMARK   98  A    between atoms: _237  and  _238
REMARK   99  A    between atoms: _237  and  _240
REMARK  100  A    between atoms: _240  and  _241
REMARK  101  A    between atoms: _244  and  _246
REMARK  102  A    between atoms: _246  and  _247
REMARK  103  A    between atoms: _250  and  _252
REMARK  104  A    between atoms: _252  and  _253
REMARK  105  A    between atoms: _252  and  _255
REMARK  106  A    between atoms: _255  and  _256
REMARK  107  A    between atoms: _261  and  _262
REMARK  108  A    between atoms: _264  and  _266
REMARK  109  A    between atoms: _266  and  _267
REMARK  110  A    between atoms: _266  and  _269
REMARK  111  A    between atoms: _269  and  _270
REMARK  112  A    between atoms: _270  and  _271
REMARK  113  A    between atoms: _271  and  _272
REMARK  114  A    between atoms: _272  and  _273
REMARK  115  A    between atoms: _277  and  _279
REMARK  116  A    between atoms: _279  and  _280
REMARK  117  A    between atoms: _279  and  _282
REMARK  118  A    between atoms: _282  and  _283
REMARK  119  A    between atoms: _286  and  _288
REMARK  120  A    between atoms: _288  and  _289
REMARK  121  A    between atoms: _288  and  _291
REMARK  122  A    between atoms: _291  and  _292
REMARK  123  A    between atoms: _294  and  _296
REMARK  124  A    between atoms: _296  and  _297
REMARK  125  A    between atoms: _296  and  _299
REMARK  126  A    between atoms: _299  and  _300
REMARK  127  A    between atoms: _300  and  _415
REMARK  128  A    between atoms: _301  and  _303
REMARK  129  A    between atoms: _303  and  _304
REMARK  130  A    between atoms: _303  and  _306
REMARK  131  A    between atoms: _306  and  _307
REMARK  132  A    between atoms: _307  and  _308
REMARK  133  A    between atoms: _308  and  _309
REMARK  134  A    between atoms: _309  and  _310
REMARK  135  A    between atoms: _314  and  _316
REMARK  136  A    between atoms: _316  and  _317
REMARK  137  A    between atoms: _319  and  _321
REMARK  138  A    between atoms: _321  and  _322
REMARK  139  A    between atoms: _321  and  _324
REMARK  140  A    between atoms: _324  and  _325
REMARK  141  A    between atoms: _328  and  _330
REMARK  142  A    between atoms: _330  and  _331
REMARK  143  A    between atoms: _330  and  _333
REMARK  144  A    between atoms: _333  and  _334
REMARK  145  A    between atoms: _336  and  _338
REMARK  146  A    between atoms: _338  and  _339
REMARK  147  A    between atoms: _341  and  _343
REMARK  148  A    between atoms: _343  and  _344
REMARK  149  A    between atoms: _346  and  _348
REMARK  150  A    between atoms: _348  and  _349
REMARK  151  A    between atoms: _348  and  _351
REMARK  152  A    between atoms: _351  and  _352
REMARK  153  A    between atoms: _355  and  _357
REMARK  154  A    between atoms: _357  and  _358
REMARK  155  A    between atoms: _357  and  _360
REMARK  156  A    between atoms: _363  and  _365
REMARK  157  A    between atoms: _365  and  _366
REMARK  158  A    between atoms: _365  and  _368
REMARK  159  A    between atoms: _368  and  _369
REMARK  160  A    between atoms: _371  and  _373
REMARK  161  A    between atoms: _373  and  _374
REMARK  162  A    between atoms: _373  and  _376
REMARK  163  A    between atoms: _376  and  _377
REMARK  164  A    between atoms: _387  and  _389
REMARK  165  A    between atoms: _389  and  _390
REMARK  166  A    between atoms: _392  and  _394
REMARK  167  A    between atoms: _394  and  _395
REMARK  168  A    between atoms: _394  and  _397
REMARK  169  A    between atoms: _397  and  _398
REMARK  170  A    between atoms: _398  and  _399
REMARK  171  A    between atoms: _404  and  _406
REMARK  172  A    between atoms: _406  and  _407
REMARK  173  A    between atoms: _409  and  _411
REMARK  174  A    between atoms: _411  and  _412
REMARK  175  A    between atoms: _411  and  _414
REMARK  176  A    between atoms: _414  and  _415
REMARK  177  A    between atoms: _416  and  _418
REMARK  178  A    between atoms: _418  and  _419
REMARK  179  A    between atoms: _422  and  _424
REMARK  180  A    between atoms: _424  and  _425
REMARK  181  A    between atoms: _424  and  _427
REMARK  182  A    between atoms: _427  and  _428
REMARK  183  A    between atoms: _431  and  _433
REMARK  184  A    between atoms: _433  and  _434
REMARK  185  A    between atoms: _433  and  _436
REMARK  186  A    between atoms: _436  and  _437
REMARK  187  A    between atoms: _442  and  _444
REMARK  188  A    between atoms: _444  and  _445
REMARK  189  A    between atoms: _444  and  _447
REMARK  190  A    between atoms: _447  and  _448
REMARK  191  A    between atoms: _454  and  _456
REMARK  192  A    between atoms: _456  and  _457
REMARK  193  A    between atoms: _459  and  _461
REMARK  194  A    between atoms: _461  and  _462
REMARK  195  A    between atoms: _461  and  _464
REMARK  196  A    between atoms: _467  and  _469
REMARK  197  A    between atoms: _469  and  _470
REMARK  198  A    between atoms: _469  and  _472
REMARK  199  A    between atoms: _472  and  _473
REMARK  200  A    between atoms: _478  and  _479
REMARK                            x       y       z     vdW  Elec       q    Type
REMARK                         _______ _______ _______ _____ _____    ______ ____
ROOT
ATOM      1  O   HOH     1       3.544  33.896  23.327  0.00  0.00    +0.000 OA
ENDROOT
TORSDOF 0
REMARK  Name = ../refined-set-2016/4na9/4na9_pocket.pdb
REMARK  200 active torsions:
REMARK  status: ('A' for Active; 'I' for Inactive)
REMARK    1  A    between atoms: _1  and  _5
REMARK    2  A    between atoms: _5  and  _6
REMARK    3  A    between atoms: _5  and  _8
REMARK    4  A    between atoms: _8  and  _9
REMARK    5  A    between atoms: _12  and  _14
REMARK    6  A    between atoms: _14  and  _15
REMARK    7  A    between atoms: _14  and  _17
REMARK    8  A    between atoms: _20  and  _22
REMARK    9  A    between atoms: _22  and  _23
REMARK   10  A    between atoms: _22  and  _25
REMARK   11  A    between atoms: _25  and  _26
REMARK   12  A    between atoms: _26  and  _27
REMARK   13  A    between atoms: _32  and  _34
REMARK   14  A    between atoms: _34  and  _35
REMARK   15  A    between atoms: _34  and  _37
REMARK   16  A    between atoms: _37  and  _38
REMARK   17  A    between atoms: _41  and  _43
REMARK   18  A    between atoms: _43  and  _44
REMARK   19  A    between atoms: _43  and  _46
REMARK   20  A    between atoms: _46  and  _47
REMARK   21  A    between atoms: _47  and  _82
REMARK   22  A    between atoms: _48  and  _50
REMARK   23  A    between atoms: _50  and  _51
REMARK   24  A    between atoms: _53  and  _55
REMARK   25  A    between atoms: _55  and  _56
REMARK   26  A    between atoms: _59  and  _61
REMARK   27  A    between atoms: _61  and  _62
REMARK   28  A    between atoms: _65  and  _67
REMARK   29  A    between atoms: _67  and  _68
REMARK   30  A    between atoms: _67  and  _70
REMARK   31  A    between atoms: _70  and  _71
REMARK   32  A    between atoms: _76  and  _78
REMARK   33  A    between atoms: _78  and  _79
REMARK   34  A    between atoms: _78  and  _81
REMARK   35  A    between atoms: _81  and  _82
REMARK   36  A    between atoms: _83  and  _85
REMARK   37  A    between atoms: _85  and  _86
REMARK   38  A    between atoms: _85  and  _88
REMARK   39  A    between atoms: _88  and  _89
REMARK   40  A    between atoms: _95  and  _97
REMARK   41  A    between atoms: _97  and  _98
REMARK   42  A    between atoms: _97  and  _100
REMARK   43  A    between atoms: _100  and  _101
REMARK   44  A    between atoms: _104  and  _106
REMARK   45  A    between atoms: _106  and  _107
REMARK   46  A    between atoms: _106  and  _109
REMARK   47  A    between atoms: _109  and  _110
REMARK   48  A    between atoms: _110  and  _111
REMARK   49  A    between atoms: _111  and  _112
REMARK   50  A    between atoms: _112  and  _113
REMARK   51  A    between atoms: _117  and  _119
REMARK   52  A    between atoms: _119  and  _120
REMARK   53  A    between atoms: _119  and  _122
REMARK   54  A    between atoms: _122  and  _123
REMARK   55  A    between atoms: _128  and  _129
REMARK   56  A    between atoms: _132  and  _133
REMARK   57  A    between atoms: _138  and  _140
REMARK   58  A    between atoms: _140  and  _141
REMARK   59  A    between atoms: _143  and  _145
REMARK   60  A    between atoms: _145  and  _146
REMARK   61  A    between atoms: _145  and  _148
REMARK   62  A    between atoms: _148  and  _149
REMARK   63  A    between atoms: _152  and  _154
REMARK   64  A    between atoms: _154  and  _155
REMARK   65  A    between atoms: _154  and  _157
REMARK   66  A    between atoms: _157  and  _158
REMARK   67  A    between atoms: _161  and  _163
REMARK   68  A    between atoms: _163  and  _164
REMARK   69  A    between atoms: _163  and  _166
REMARK   70  A    between atoms: _166  and  _167
REMARK   71  A    between atoms: _170  and  _172
REMARK   72  A    between atoms: _172  and  _173
REMARK   73  A    between atoms: _172  and  _175
REMARK   74  A    between atoms: _178  and  _180
REMARK   75  A    between atoms: _180  and  _181
REMARK   76  A    between atoms: _183  and  _185
REMARK   77  A    between atoms: _185  and  _186
REMARK   78  A    between atoms: _185  and  _188
REMARK   79  A    between atoms: _188  and  _189
REMARK   80  A    between atoms: _189  and  _190
REMARK   81  A    between atoms: _195  and  _197
REMARK   82  A    between atoms: _197  and  _198
REMARK   83  A    between atoms: _197  and  _200
REMARK   84  A    between atoms: _200  and  _201
REMARK   85  A    between atoms: _204  and  _206
REMARK   86  A    between atoms: _206  and  _207
REMARK   87  A    between atoms: _206  and  _209
REMARK   88  A    between atoms: _209  and  _210
REMARK   89  A    between atoms: _213  and  _215
REMARK   90  A    between atoms: _215  and  _216
REMARK   91  A    between atoms: _215  and  _218
REMARK   92  A    between atoms: _218  and  _219
REMARK   93  A    between atoms: _219  and  _220
REMARK   94  A    between atoms: _220  and  _221
REMARK   95  A    between atoms: _230  and  _232
REMARK   96  A    between atoms: _232  and  _233
REMARK   97  A    between atoms: _235  and  _237
REMARK   98  A    between atoms: _237  and  _238
REMARK   99  A    between atoms: _237  and  _240
REMARK  100  A    between atoms: _240  and  _241
REMARK  101  A    between atoms: _244  and  _246
REMARK  102  A    between atoms: _246  and  _247
REMARK  103  A    between atoms: _250  and  _252
REMARK  104  A    between atoms: _252  and  _253
REMARK  105  A    between atoms: _252  and  _255
REMARK  106  A    between atoms: _255  and  _256
REMARK  107  A    between atoms: _261  and  _262
REMARK  108  A    between atoms: _264  and  _266
REMARK  109  A    between atoms: _266  and  _267
REMARK  110  A    between atoms: _266  and  _269
REMARK  111  A    between atoms: _269  and  _270
REMARK  112  A    between atoms: _270  and  _271
REMARK  113  A    between atoms: _271  and  _272
REMARK  114  A    between atoms: _272  and  _273
REMARK  115  A    between atoms: _277  and  _279
REMARK  116  A    between atoms: _279  and  _280
REMARK  117  A    between atoms: _279  and  _282
REMARK  118  A    between atoms: _282  and  _283
REMARK  119  A    between atoms: _286  and  _288
REMARK  120  A    between atoms: _288  and  _289
REMARK  121  A    between atoms: _288  and  _291
REMARK  122  A    between atoms: _291  and  _292
REMARK  123  A    between atoms: _294  and  _296
REMARK  124  A    between atoms: _296  and  _297
REMARK  125  A    between atoms: _296  and  _299
REMARK  126  A    between atoms: _299  and  _300
REMARK  127  A    between atoms: _300  and  _415
REMARK  128  A    between atoms: _301  and  _303
REMARK  129  A    between atoms: _303  and  _304
REMARK  130  A    between atoms: _303  and  _306
REMARK  131  A    between atoms: _306  and  _307
REMARK  132  A    between atoms: _307  and  _308
REMARK  133  A    between atoms: _308  and  _309
REMARK  134  A    between atoms: _309  and  _310
REMARK  135  A    between atoms: _314  and  _316
REMARK  136  A    between atoms: _316  and  _317
REMARK  137  A    between atoms: _319  and  _321
REMARK  138  A    between atoms: _321  and  _322
REMARK  139  A    between atoms: _321  and  _324
REMARK  140  A    between atoms: _324  and  _325
REMARK  141  A    between atoms: _328  and  _330
REMARK  142  A    between atoms: _330  and  _331
REMARK  143  A    between atoms: _330  and  _333
REMARK  144  A    between atoms: _333  and  _334
REMARK  145  A    between atoms: _336  and  _338
REMARK  146  A    between atoms: _338  and  _339
REMARK  147  A    between atoms: _341  and  _343
REMARK  148  A    between atoms: _343  and  _344
REMARK  149  A    between atoms: _346  and  _348
REMARK  150  A    between atoms: _348  and  _349
REMARK  151  A    between atoms: _348  and  _351
REMARK  152  A    between atoms: _351  and  _352
REMARK  153  A    between atoms: _355  and  _357
REMARK  154  A    between atoms: _357  and  _358
REMARK  155  A    between atoms: _357  and  _360
REMARK  156  A    between atoms: _363  and  _365
REMARK  157  A    between atoms: _365  and  _366
REMARK  158  A    between atoms: _365  and  _368
REMARK  159  A    between atoms: _368  and  _369
REMARK  160  A    between atoms: _371  and  _373
REMARK  161  A    between atoms: _373  and  _374
REMARK  162  A    between atoms: _373  and  _376
REMARK  163  A    between atoms: _376  and  _377
REMARK  164  A    between atoms: _387  and  _389
REMARK  165  A    between atoms: _389  and  _390
REMARK  166  A    between atoms: _392  and  _394
REMARK  167  A    between atoms: _394  and  _395
REMARK  168  A    between atoms: _394  and  _397
REMARK  169  A    between atoms: _397  and  _398
REMARK  170  A    between atoms: _398  and  _399
REMARK  171  A    between atoms: _404  and  _406
REMARK  172  A    between atoms: _406  and  _407
REMARK  173  A    between atoms: _409  and  _411
REMARK  174  A    between atoms: _411  and  _412
REMARK  175  A    between atoms: _411  and  _414
REMARK  176  A    between atoms: _414  and  _415
REMARK  177  A    between atoms: _416  and  _418
REMARK  178  A    between atoms: _418  and  _419
REMARK  179  A    between atoms: _422  and  _424
REMARK  180  A    between atoms: _424  and  _425
REMARK  181  A    between atoms: _424  and  _427
REMARK  182  A    between atoms: _427  and  _428
REMARK  183  A    between atoms: _431  and  _433
REMARK  184  A    between atoms: _433  and  _434
REMARK  185  A    between atoms: _433  and  _436
REMARK  186  A    between atoms: _436  and  _437
REMARK  187  A    between atoms: _442  and  _444
REMARK  188  A    between atoms: _444  and  _445
REMARK  189  A    between atoms: _444  and  _447
REMARK  190  A    between atoms: _447  and  _448
REMARK  191  A    between atoms: _454  and  _456
REMARK  192  A    between atoms: _456  and  _457
REMARK  193  A    between atoms: _459  and  _461
REMARK  194  A    between atoms: _461  and  _462
REMARK  195  A    between atoms: _461  and  _464
REMARK  196  A    between atoms: _467  and  _469
REMARK  197  A    between atoms: _469  and  _470
REMARK  198  A    between atoms: _469  and  _472
REMARK  199  A    between atoms: _472  and  _473
REMARK  200  A    between atoms: _478  and  _479
REMARK                            x       y       z     vdW  Elec       q    Type
REMARK                         _______ _______ _______ _____ _____    ______ ____
ROOT
ATOM      1  O   HOH     1      15.736  41.743  22.487  0.00  0.00    +0.000 OA
ENDROOT
TORSDOF 0
REMARK  Name = ../refined-set-2016/4na9/4na9_pocket.pdb
REMARK  200 active torsions:
REMARK  status: ('A' for Active; 'I' for Inactive)
REMARK    1  A    between atoms: _1  and  _5
REMARK    2  A    between atoms: _5  and  _6
REMARK    3  A    between atoms: _5  and  _8
REMARK    4  A    between atoms: _8  and  _9
REMARK    5  A    between atoms: _12  and  _14
REMARK    6  A    between atoms: _14  and  _15
REMARK    7  A    between atoms: _14  and  _17
REMARK    8  A    between atoms: _20  and  _22
REMARK    9  A    between atoms: _22  and  _23
REMARK   10  A    between atoms: _22  and  _25
REMARK   11  A    between atoms: _25  and  _26
REMARK   12  A    between atoms: _26  and  _27
REMARK   13  A    between atoms: _32  and  _34
REMARK   14  A    between atoms: _34  and  _35
REMARK   15  A    between atoms: _34  and  _37
REMARK   16  A    between atoms: _37  and  _38
REMARK   17  A    between atoms: _41  and  _43
REMARK   18  A    between atoms: _43  and  _44
REMARK   19  A    between atoms: _43  and  _46
REMARK   20  A    between atoms: _46  and  _47
REMARK   21  A    between atoms: _47  and  _82
REMARK   22  A    between atoms: _48  and  _50
REMARK   23  A    between atoms: _50  and  _51
REMARK   24  A    between atoms: _53  and  _55
REMARK   25  A    between atoms: _55  and  _56
REMARK   26  A    between atoms: _59  and  _61
REMARK   27  A    between atoms: _61  and  _62
REMARK   28  A    between atoms: _65  and  _67
REMARK   29  A    between atoms: _67  and  _68
REMARK   30  A    between atoms: _67  and  _70
REMARK   31  A    between atoms: _70  and  _71
REMARK   32  A    between atoms: _76  and  _78
REMARK   33  A    between atoms: _78  and  _79
REMARK   34  A    between atoms: _78  and  _81
REMARK   35  A    between atoms: _81  and  _82
REMARK   36  A    between atoms: _83  and  _85
REMARK   37  A    between atoms: _85  and  _86
REMARK   38  A    between atoms: _85  and  _88
REMARK   39  A    between atoms: _88  and  _89
REMARK   40  A    between atoms: _95  and  _97
REMARK   41  A    between atoms: _97  and  _98
REMARK   42  A    between atoms: _97  and  _100
REMARK   43  A    between atoms: _100  and  _101
REMARK   44  A    between atoms: _104  and  _106
REMARK   45  A    between atoms: _106  and  _107
REMARK   46  A    between atoms: _106  and  _109
REMARK   47  A    between atoms: _109  and  _110
REMARK   48  A    between atoms: _110  and  _111
REMARK   49  A    between atoms: _111  and  _112
REMARK   50  A    between atoms: _112  and  _113
REMARK   51  A    between atoms: _117  and  _119
REMARK   52  A    between atoms: _119  and  _120
REMARK   53  A    between atoms: _119  and  _122
REMARK   54  A    between atoms: _122  and  _123
REMARK   55  A    between atoms: _128  and  _129
REMARK   56  A    between atoms: _132  and  _133
REMARK   57  A    between atoms: _138  and  _140
REMARK   58  A    between atoms: _140  and  _141
REMARK   59  A    between atoms: _143  and  _145
REMARK   60  A    between atoms: _145  and  _146
REMARK   61  A    between atoms: _145  and  _148
REMARK   62  A    between atoms: _148  and  _149
REMARK   63  A    between atoms: _152  and  _154
REMARK   64  A    between atoms: _154  and  _155
REMARK   65  A    between atoms: _154  and  _157
REMARK   66  A    between atoms: _157  and  _158
REMARK   67  A    between atoms: _161  and  _163
REMARK   68  A    between atoms: _163  and  _164
REMARK   69  A    between atoms: _163  and  _166
REMARK   70  A    between atoms: _166  and  _167
REMARK   71  A    between atoms: _170  and  _172
REMARK   72  A    between atoms: _172  and  _173
REMARK   73  A    between atoms: _172  and  _175
REMARK   74  A    between atoms: _178  and  _180
REMARK   75  A    between atoms: _180  and  _181
REMARK   76  A    between atoms: _183  and  _185
REMARK   77  A    between atoms: _185  and  _186
REMARK   78  A    between atoms: _185  and  _188
REMARK   79  A    between atoms: _188  and  _189
REMARK   80  A    between atoms: _189  and  _190
REMARK   81  A    between atoms: _195  and  _197
REMARK   82  A    between atoms: _197  and  _198
REMARK   83  A    between atoms: _197  and  _200
REMARK   84  A    between atoms: _200  and  _201
REMARK   85  A    between atoms: _204  and  _206
REMARK   86  A    between atoms: _206  and  _207
REMARK   87  A    between atoms: _206  and  _209
REMARK   88  A    between atoms: _209  and  _210
REMARK   89  A    between atoms: _213  and  _215
REMARK   90  A    between atoms: _215  and  _216
REMARK   91  A    between atoms: _215  and  _218
REMARK   92  A    between atoms: _218  and  _219
REMARK   93  A    between atoms: _219  and  _220
REMARK   94  A    between atoms: _220  and  _221
REMARK   95  A    between atoms: _230  and  _232
REMARK   96  A    between atoms: _232  and  _233
REMARK   97  A    between atoms: _235  and  _237
REMARK   98  A    between atoms: _237  and  _238
REMARK   99  A    between atoms: _237  and  _240
REMARK  100  A    between atoms: _240  and  _241
REMARK  101  A    between atoms: _244  and  _246
REMARK  102  A    between atoms: _246  and  _247
REMARK  103  A    between atoms: _250  and  _252
REMARK  104  A    between atoms: _252  and  _253
REMARK  105  A    between atoms: _252  and  _255
REMARK  106  A    between atoms: _255  and  _256
REMARK  107  A    between atoms: _261  and  _262
REMARK  108  A    between atoms: _264  and  _266
REMARK  109  A    between atoms: _266  and  _267
REMARK  110  A    between atoms: _266  and  _269
REMARK  111  A    between atoms: _269  and  _270
REMARK  112  A    between atoms: _270  and  _271
REMARK  113  A    between atoms: _271  and  _272
REMARK  114  A    between atoms: _272  and  _273
REMARK  115  A    between atoms: _277  and  _279
REMARK  116  A    between atoms: _279  and  _280
REMARK  117  A    between atoms: _279  and  _282
REMARK  118  A    between atoms: _282  and  _283
REMARK  119  A    between atoms: _286  and  _288
REMARK  120  A    between atoms: _288  and  _289
REMARK  121  A    between atoms: _288  and  _291
REMARK  122  A    between atoms: _291  and  _292
REMARK  123  A    between atoms: _294  and  _296
REMARK  124  A    between atoms: _296  and  _297
REMARK  125  A    between atoms: _296  and  _299
REMARK  126  A    between atoms: _299  and  _300
REMARK  127  A    between atoms: _300  and  _415
REMARK  128  A    between atoms: _301  and  _303
REMARK  129  A    between atoms: _303  and  _304
REMARK  130  A    between atoms: _303  and  _306
REMARK  131  A    between atoms: _306  and  _307
REMARK  132  A    between atoms: _307  and  _308
REMARK  133  A    between atoms: _308  and  _309
REMARK  134  A    between atoms: _309  and  _310
REMARK  135  A    between atoms: _314  and  _316
REMARK  136  A    between atoms: _316  and  _317
REMARK  137  A    between atoms: _319  and  _321
REMARK  138  A    between atoms: _321  and  _322
REMARK  139  A    between atoms: _321  and  _324
REMARK  140  A    between atoms: _324  and  _325
REMARK  141  A    between atoms: _328  and  _330
REMARK  142  A    between atoms: _330  and  _331
REMARK  143  A    between atoms: _330  and  _333
REMARK  144  A    between atoms: _333  and  _334
REMARK  145  A    between atoms: _336  and  _338
REMARK  146  A    between atoms: _338  and  _339
REMARK  147  A    between atoms: _341  and  _343
REMARK  148  A    between atoms: _343  and  _344
REMARK  149  A    between atoms: _346  and  _348
REMARK  150  A    between atoms: _348  and  _349
REMARK  151  A    between atoms: _348  and  _351
REMARK  152  A    between atoms: _351  and  _352
REMARK  153  A    between atoms: _355  and  _357
REMARK  154  A    between atoms: _357  and  _358
REMARK  155  A    between atoms: _357  and  _360
REMARK  156  A    between atoms: _363  and  _365
REMARK  157  A    between atoms: _365  and  _366
REMARK  158  A    between atoms: _365  and  _368
REMARK  159  A    between atoms: _368  and  _369
REMARK  160  A    between atoms: _371  and  _373
REMARK  161  A    between atoms: _373  and  _374
REMARK  162  A    between atoms: _373  and  _376
REMARK  163  A    between atoms: _376  and  _377
REMARK  164  A    between atoms: _387  and  _389
REMARK  165  A    between atoms: _389  and  _390
REMARK  166  A    between atoms: _392  and  _394
REMARK  167  A    between atoms: _394  and  _395
REMARK  168  A    between atoms: _394  and  _397
REMARK  169  A    between atoms: _397  and  _398
REMARK  170  A    between atoms: _398  and  _399
REMARK  171  A    between atoms: _404  and  _406
REMARK  172  A    between atoms: _406  and  _407
REMARK  173  A    between atoms: _409  and  _411
REMARK  174  A    between atoms: _411  and  _412
REMARK  175  A    between atoms: _411  and  _414
REMARK  176  A    between atoms: _414  and  _415
REMARK  177  A    between atoms: _416  and  _418
REMARK  178  A    between atoms: _418  and  _419
REMARK  179  A    between atoms: _422  and  _424
REMARK  180  A    between atoms: _424  and  _425
REMARK  181  A    between atoms: _424  and  _427
REMARK  182  A    between atoms: _427  and  _428
REMARK  183  A    between atoms: _431  and  _433
REMARK  184  A    between atoms: _433  and  _434
REMARK  185  A    between atoms: _433  and  _436
REMARK  186  A    between atoms: _436  and  _437
REMARK  187  A    between atoms: _442  and  _444
REMARK  188  A    between atoms: _444  and  _445
REMARK  189  A    between atoms: _444  and  _447
REMARK  190  A    between atoms: _447  and  _448
REMARK  191  A    between atoms: _454  and  _456
REMARK  192  A    between atoms: _456  and  _457
REMARK  193  A    between atoms: _459  and  _461
REMARK  194  A    between atoms: _461  and  _462
REMARK  195  A    between atoms: _461  and  _464
REMARK  196  A    between atoms: _467  and  _469
REMARK  197  A    between atoms: _469  and  _470
REMARK  198  A    between atoms: _469  and  _472
REMARK  199  A    between atoms: _472  and  _473
REMARK  200  A    between atoms: _478  and  _479
REMARK                            x       y       z     vdW  Elec       q    Type
REMARK                         _______ _______ _______ _____ _____    ______ ____
ROOT
ATOM      1  O   HOH     1       5.479  41.682  26.487  0.00  0.00    +0.000 OA
ENDROOT
TORSDOF 0
REMARK  Name = ../refined-set-2016/4na9/4na9_pocket.pdb
REMARK  200 active torsions:
REMARK  status: ('A' for Active; 'I' for Inactive)
REMARK    1  A    between atoms: _1  and  _5
REMARK    2  A    between atoms: _5  and  _6
REMARK    3  A    between atoms: _5  and  _8
REMARK    4  A    between atoms: _8  and  _9
REMARK    5  A    between atoms: _12  and  _14
REMARK    6  A    between atoms: _14  and  _15
REMARK    7  A    between atoms: _14  and  _17
REMARK    8  A    between atoms: _20  and  _22
REMARK    9  A    between atoms: _22  and  _23
REMARK   10  A    between atoms: _22  and  _25
REMARK   11  A    between atoms: _25  and  _26
REMARK   12  A    between atoms: _26  and  _27
REMARK   13  A    between atoms: _32  and  _34
REMARK   14  A    between atoms: _34  and  _35
REMARK   15  A    between atoms: _34  and  _37
REMARK   16  A    between atoms: _37  and  _38
REMARK   17  A    between atoms: _41  and  _43
REMARK   18  A    between atoms: _43  and  _44
REMARK   19  A    between atoms: _43  and  _46
REMARK   20  A    between atoms: _46  and  _47
REMARK   21  A    between atoms: _47  and  _82
REMARK   22  A    between atoms: _48  and  _50
REMARK   23  A    between atoms: _50  and  _51
REMARK   24  A    between atoms: _53  and  _55
REMARK   25  A    between atoms: _55  and  _56
REMARK   26  A    between atoms: _59  and  _61
REMARK   27  A    between atoms: _61  and  _62
REMARK   28  A    between atoms: _65  and  _67
REMARK   29  A    between atoms: _67  and  _68
REMARK   30  A    between atoms: _67  and  _70
REMARK   31  A    between atoms: _70  and  _71
REMARK   32  A    between atoms: _76  and  _78
REMARK   33  A    between atoms: _78  and  _79
REMARK   34  A    between atoms: _78  and  _81
REMARK   35  A    between atoms: _81  and  _82
REMARK   36  A    between atoms: _83  and  _85
REMARK   37  A    between atoms: _85  and  _86
REMARK   38  A    between atoms: _85  and  _88
REMARK   39  A    between atoms: _88  and  _89
REMARK   40  A    between atoms: _95  and  _97
REMARK   41  A    between atoms: _97  and  _98
REMARK   42  A    between atoms: _97  and  _100
REMARK   43  A    between atoms: _100  and  _101
REMARK   44  A    between atoms: _104  and  _106
REMARK   45  A    between atoms: _106  and  _107
REMARK   46  A    between atoms: _106  and  _109
REMARK   47  A    between atoms: _109  and  _110
REMARK   48  A    between atoms: _110  and  _111
REMARK   49  A    between atoms: _111  and  _112
REMARK   50  A    between atoms: _112  and  _113
REMARK   51  A    between atoms: _117  and  _119
REMARK   52  A    between atoms: _119  and  _120
REMARK   53  A    between atoms: _119  and  _122
REMARK   54  A    between atoms: _122  and  _123
REMARK   55  A    between atoms: _128  and  _129
REMARK   56  A    between atoms: _132  and  _133
REMARK   57  A    between atoms: _138  and  _140
REMARK   58  A    between atoms: _140  and  _141
REMARK   59  A    between atoms: _143  and  _145
REMARK   60  A    between atoms: _145  and  _146
REMARK   61  A    between atoms: _145  and  _148
REMARK   62  A    between atoms: _148  and  _149
REMARK   63  A    between atoms: _152  and  _154
REMARK   64  A    between atoms: _154  and  _155
REMARK   65  A    between atoms: _154  and  _157
REMARK   66  A    between atoms: _157  and  _158
REMARK   67  A    between atoms: _161  and  _163
REMARK   68  A    between atoms: _163  and  _164
REMARK   69  A    between atoms: _163  and  _166
REMARK   70  A    between atoms: _166  and  _167
REMARK   71  A    between atoms: _170  and  _172
REMARK   72  A    between atoms: _172  and  _173
REMARK   73  A    between atoms: _172  and  _175
REMARK   74  A    between atoms: _178  and  _180
REMARK   75  A    between atoms: _180  and  _181
REMARK   76  A    between atoms: _183  and  _185
REMARK   77  A    between atoms: _185  and  _186
REMARK   78  A    between atoms: _185  and  _188
REMARK   79  A    between atoms: _188  and  _189
REMARK   80  A    between atoms: _189  and  _190
REMARK   81  A    between atoms: _195  and  _197
REMARK   82  A    between atoms: _197  and  _198
REMARK   83  A    between atoms: _197  and  _200
REMARK   84  A    between atoms: _200  and  _201
REMARK   85  A    between atoms: _204  and  _206
REMARK   86  A    between atoms: _206  and  _207
REMARK   87  A    between atoms: _206  and  _209
REMARK   88  A    between atoms: _209  and  _210
REMARK   89  A    between atoms: _213  and  _215
REMARK   90  A    between atoms: _215  and  _216
REMARK   91  A    between atoms: _215  and  _218
REMARK   92  A    between atoms: _218  and  _219
REMARK   93  A    between atoms: _219  and  _220
REMARK   94  A    between atoms: _220  and  _221
REMARK   95  A    between atoms: _230  and  _232
REMARK   96  A    between atoms: _232  and  _233
REMARK   97  A    between atoms: _235  and  _237
REMARK   98  A    between atoms: _237  and  _238
REMARK   99  A    between atoms: _237  and  _240
REMARK  100  A    between atoms: _240  and  _241
REMARK  101  A    between atoms: _244  and  _246
REMARK  102  A    between atoms: _246  and  _247
REMARK  103  A    between atoms: _250  and  _252
REMARK  104  A    between atoms: _252  and  _253
REMARK  105  A    between atoms: _252  and  _255
REMARK  106  A    between atoms: _255  and  _256
REMARK  107  A    between atoms: _261  and  _262
REMARK  108  A    between atoms: _264  and  _266
REMARK  109  A    between atoms: _266  and  _267
REMARK  110  A    between atoms: _266  and  _269
REMARK  111  A    between atoms: _269  and  _270
REMARK  112  A    between atoms: _270  and  _271
REMARK  113  A    between atoms: _271  and  _272
REMARK  114  A    between atoms: _272  and  _273
REMARK  115  A    between atoms: _277  and  _279
REMARK  116  A    between atoms: _279  and  _280
REMARK  117  A    between atoms: _279  and  _282
REMARK  118  A    between atoms: _282  and  _283
REMARK  119  A    between atoms: _286  and  _288
REMARK  120  A    between atoms: _288  and  _289
REMARK  121  A    between atoms: _288  and  _291
REMARK  122  A    between atoms: _291  and  _292
REMARK  123  A    between atoms: _294  and  _296
REMARK  124  A    between atoms: _296  and  _297
REMARK  125  A    between atoms: _296  and  _299
REMARK  126  A    between atoms: _299  and  _300
REMARK  127  A    between atoms: _300  and  _415
REMARK  128  A    between atoms: _301  and  _303
REMARK  129  A    between atoms: _303  and  _304
REMARK  130  A    between atoms: _303  and  _306
REMARK  131  A    between atoms: _306  and  _307
REMARK  132  A    between atoms: _307  and  _308
REMARK  133  A    between atoms: _308  and  _309
REMARK  134  A    between atoms: _309  and  _310
REMARK  135  A    between atoms: _314  and  _316
REMARK  136  A    between atoms: _316  and  _317
REMARK  137  A    between atoms: _319  and  _321
REMARK  138  A    between atoms: _321  and  _322
REMARK  139  A    between atoms: _321  and  _324
REMARK  140  A    between atoms: _324  and  _325
REMARK  141  A    between atoms: _328  and  _330
REMARK  142  A    between atoms: _330  and  _331
REMARK  143  A    between atoms: _330  and  _333
REMARK  144  A    between atoms: _333  and  _334
REMARK  145  A    between atoms: _336  and  _338
REMARK  146  A    between atoms: _338  and  _339
REMARK  147  A    between atoms: _341  and  _343
REMARK  148  A    between atoms: _343  and  _344
REMARK  149  A    between atoms: _346  and  _348
REMARK  150  A    between atoms: _348  and  _349
REMARK  151  A    between atoms: _348  and  _351
REMARK  152  A    between atoms: _351  and  _352
REMARK  153  A    between atoms: _355  and  _357
REMARK  154  A    between atoms: _357  and  _358
REMARK  155  A    between atoms: _357  and  _360
REMARK  156  A    between atoms: _363  and  _365
REMARK  157  A    between atoms: _365  and  _366
REMARK  158  A    between atoms: _365  and  _368
REMARK  159  A    between atoms: _368  and  _369
REMARK  160  A    between atoms: _371  and  _373
REMARK  161  A    between atoms: _373  and  _374
REMARK  162  A    between atoms: _373  and  _376
REMARK  163  A    between atoms: _376  and  _377
REMARK  164  A    between atoms: _387  and  _389
REMARK  165  A    between atoms: _389  and  _390
REMARK  166  A    between atoms: _392  and  _394
REMARK  167  A    between atoms: _394  and  _395
REMARK  168  A    between atoms: _394  and  _397
REMARK  169  A    between atoms: _397  and  _398
REMARK  170  A    between atoms: _398  and  _399
REMARK  171  A    between atoms: _404  and  _406
REMARK  172  A    between atoms: _406  and  _407
REMARK  173  A    between atoms: _409  and  _411
REMARK  174  A    between atoms: _411  and  _412
REMARK  175  A    between atoms: _411  and  _414
REMARK  176  A    between atoms: _414  and  _415
REMARK  177  A    between atoms: _416  and  _418
REMARK  178  A    between atoms: _418  and  _419
REMARK  179  A    between atoms: _422  and  _424
REMARK  180  A    between atoms: _424  and  _425
REMARK  181  A    between atoms: _424  and  _427
REMARK  182  A    between atoms: _427  and  _428
REMARK  183  A    between atoms: _431  and  _433
REMARK  184  A    between atoms: _433  and  _434
REMARK  185  A    between atoms: _433  and  _436
REMARK  186  A    between atoms: _436  and  _437
REMARK  187  A    between atoms: _442  and  _444
REMARK  188  A    between atoms: _444  and  _445
REMARK  189  A    between atoms: _444  and  _447
REMARK  190  A    between atoms: _447  and  _448
REMARK  191  A    between atoms: _454  and  _456
REMARK  192  A    between atoms: _456  and  _457
REMARK  193  A    between atoms: _459  and  _461
REMARK  194  A    between atoms: _461  and  _462
REMARK  195  A    between atoms: _461  and  _464
REMARK  196  A    between atoms: _467  and  _469
REMARK  197  A    between atoms: _469  and  _470
REMARK  198  A    between atoms: _469  and  _472
REMARK  199  A    between atoms: _472  and  _473
REMARK  200  A    between atoms: _478  and  _479
REMARK                            x       y       z     vdW  Elec       q    Type
REMARK                         _______ _______ _______ _____ _____    ______ ____
ROOT
ATOM      1  O   HOH     1       7.013  41.047  15.207  0.00  0.00    +0.000 OA
ENDROOT
TORSDOF 0
REMARK  Name = ../refined-set-2016/4na9/4na9_pocket.pdb
REMARK  200 active torsions:
REMARK  status: ('A' for Active; 'I' for Inactive)
REMARK    1  A    between atoms: _1  and  _5
REMARK    2  A    between atoms: _5  and  _6
REMARK    3  A    between atoms: _5  and  _8
REMARK    4  A    between atoms: _8  and  _9
REMARK    5  A    between atoms: _12  and  _14
REMARK    6  A    between atoms: _14  and  _15
REMARK    7  A    between atoms: _14  and  _17
REMARK    8  A    between atoms: _20  and  _22
REMARK    9  A    between atoms: _22  and  _23
REMARK   10  A    between atoms: _22  and  _25
REMARK   11  A    between atoms: _25  and  _26
REMARK   12  A    between atoms: _26  and  _27
REMARK   13  A    between atoms: _32  and  _34
REMARK   14  A    between atoms: _34  and  _35
REMARK   15  A    between atoms: _34  and  _37
REMARK   16  A    between atoms: _37  and  _38
REMARK   17  A    between atoms: _41  and  _43
REMARK   18  A    between atoms: _43  and  _44
REMARK   19  A    between atoms: _43  and  _46
REMARK   20  A    between atoms: _46  and  _47
REMARK   21  A    between atoms: _47  and  _82
REMARK   22  A    between atoms: _48  and  _50
REMARK   23  A    between atoms: _50  and  _51
REMARK   24  A    between atoms: _53  and  _55
REMARK   25  A    between atoms: _55  and  _56
REMARK   26  A    between atoms: _59  and  _61
REMARK   27  A    between atoms: _61  and  _62
REMARK   28  A    between atoms: _65  and  _67
REMARK   29  A    between atoms: _67  and  _68
REMARK   30  A    between atoms: _67  and  _70
REMARK   31  A    between atoms: _70  and  _71
REMARK   32  A    between atoms: _76  and  _78
REMARK   33  A    between atoms: _78  and  _79
REMARK   34  A    between atoms: _78  and  _81
REMARK   35  A    between atoms: _81  and  _82
REMARK   36  A    between atoms: _83  and  _85
REMARK   37  A    between atoms: _85  and  _86
REMARK   38  A    between atoms: _85  and  _88
REMARK   39  A    between atoms: _88  and  _89
REMARK   40  A    between atoms: _95  and  _97
REMARK   41  A    between atoms: _97  and  _98
REMARK   42  A    between atoms: _97  and  _100
REMARK   43  A    between atoms: _100  and  _101
REMARK   44  A    between atoms: _104  and  _106
REMARK   45  A    between atoms: _106  and  _107
REMARK   46  A    between atoms: _106  and  _109
REMARK   47  A    between atoms: _109  and  _110
REMARK   48  A    between atoms: _110  and  _111
REMARK   49  A    between atoms: _111  and  _112
REMARK   50  A    between atoms: _112  and  _113
REMARK   51  A    between atoms: _117  and  _119
REMARK   52  A    between atoms: _119  and  _120
REMARK   53  A    between atoms: _119  and  _122
REMARK   54  A    between atoms: _122  and  _123
REMARK   55  A    between atoms: _128  and  _129
REMARK   56  A    between atoms: _132  and  _133
REMARK   57  A    between atoms: _138  and  _140
REMARK   58  A    between atoms: _140  and  _141
REMARK   59  A    between atoms: _143  and  _145
REMARK   60  A    between atoms: _145  and  _146
REMARK   61  A    between atoms: _145  and  _148
REMARK   62  A    between atoms: _148  and  _149
REMARK   63  A    between atoms: _152  and  _154
REMARK   64  A    between atoms: _154  and  _155
REMARK   65  A    between atoms: _154  and  _157
REMARK   66  A    between atoms: _157  and  _158
REMARK   67  A    between atoms: _161  and  _163
REMARK   68  A    between atoms: _163  and  _164
REMARK   69  A    between atoms: _163  and  _166
REMARK   70  A    between atoms: _166  and  _167
REMARK   71  A    between atoms: _170  and  _172
REMARK   72  A    between atoms: _172  and  _173
REMARK   73  A    between atoms: _172  and  _175
REMARK   74  A    between atoms: _178  and  _180
REMARK   75  A    between atoms: _180  and  _181
REMARK   76  A    between atoms: _183  and  _185
REMARK   77  A    between atoms: _185  and  _186
REMARK   78  A    between atoms: _185  and  _188
REMARK   79  A    between atoms: _188  and  _189
REMARK   80  A    between atoms: _189  and  _190
REMARK   81  A    between atoms: _195  and  _197
REMARK   82  A    between atoms: _197  and  _198
REMARK   83  A    between atoms: _197  and  _200
REMARK   84  A    between atoms: _200  and  _201
REMARK   85  A    between atoms: _204  and  _206
REMARK   86  A    between atoms: _206  and  _207
REMARK   87  A    between atoms: _206  and  _209
REMARK   88  A    between atoms: _209  and  _210
REMARK   89  A    between atoms: _213  and  _215
REMARK   90  A    between atoms: _215  and  _216
REMARK   91  A    between atoms: _215  and  _218
REMARK   92  A    between atoms: _218  and  _219
REMARK   93  A    between atoms: _219  and  _220
REMARK   94  A    between atoms: _220  and  _221
REMARK   95  A    between atoms: _230  and  _232
REMARK   96  A    between atoms: _232  and  _233
REMARK   97  A    between atoms: _235  and  _237
REMARK   98  A    between atoms: _237  and  _238
REMARK   99  A    between atoms: _237  and  _240
REMARK  100  A    between atoms: _240  and  _241
REMARK  101  A    between atoms: _244  and  _246
REMARK  102  A    between atoms: _246  and  _247
REMARK  103  A    between atoms: _250  and  _252
REMARK  104  A    between atoms: _252  and  _253
REMARK  105  A    between atoms: _252  and  _255
REMARK  106  A    between atoms: _255  and  _256
REMARK  107  A    between atoms: _261  and  _262
REMARK  108  A    between atoms: _264  and  _266
REMARK  109  A    between atoms: _266  and  _267
REMARK  110  A    between atoms: _266  and  _269
REMARK  111  A    between atoms: _269  and  _270
REMARK  112  A    between atoms: _270  and  _271
REMARK  113  A    between atoms: _271  and  _272
REMARK  114  A    between atoms: _272  and  _273
REMARK  115  A    between atoms: _277  and  _279
REMARK  116  A    between atoms: _279  and  _280
REMARK  117  A    between atoms: _279  and  _282
REMARK  118  A    between atoms: _282  and  _283
REMARK  119  A    between atoms: _286  and  _288
REMARK  120  A    between atoms: _288  and  _289
REMARK  121  A    between atoms: _288  and  _291
REMARK  122  A    between atoms: _291  and  _292
REMARK  123  A    between atoms: _294  and  _296
REMARK  124  A    between atoms: _296  and  _297
REMARK  125  A    between atoms: _296  and  _299
REMARK  126  A    between atoms: _299  and  _300
REMARK  127  A    between atoms: _300  and  _415
REMARK  128  A    between atoms: _301  and  _303
REMARK  129  A    between atoms: _303  and  _304
REMARK  130  A    between atoms: _303  and  _306
REMARK  131  A    between atoms: _306  and  _307
REMARK  132  A    between atoms: _307  and  _308
REMARK  133  A    between atoms: _308  and  _309
REMARK  134  A    between atoms: _309  and  _310
REMARK  135  A    between atoms: _314  and  _316
REMARK  136  A    between atoms: _316  and  _317
REMARK  137  A    between atoms: _319  and  _321
REMARK  138  A    between atoms: _321  and  _322
REMARK  139  A    between atoms: _321  and  _324
REMARK  140  A    between atoms: _324  and  _325
REMARK  141  A    between atoms: _328  and  _330
REMARK  142  A    between atoms: _330  and  _331
REMARK  143  A    between atoms: _330  and  _333
REMARK  144  A    between atoms: _333  and  _334
REMARK  145  A    between atoms: _336  and  _338
REMARK  146  A    between atoms: _338  and  _339
REMARK  147  A    between atoms: _341  and  _343
REMARK  148  A    between atoms: _343  and  _344
REMARK  149  A    between atoms: _346  and  _348
REMARK  150  A    between atoms: _348  and  _349
REMARK  151  A    between atoms: _348  and  _351
REMARK  152  A    between atoms: _351  and  _352
REMARK  153  A    between atoms: _355  and  _357
REMARK  154  A    between atoms: _357  and  _358
REMARK  155  A    between atoms: _357  and  _360
REMARK  156  A    between atoms: _363  and  _365
REMARK  157  A    between atoms: _365  and  _366
REMARK  158  A    between atoms: _365  and  _368
REMARK  159  A    between atoms: _368  and  _369
REMARK  160  A    between atoms: _371  and  _373
REMARK  161  A    between atoms: _373  and  _374
REMARK  162  A    between atoms: _373  and  _376
REMARK  163  A    between atoms: _376  and  _377
REMARK  164  A    between atoms: _387  and  _389
REMARK  165  A    between atoms: _389  and  _390
REMARK  166  A    between atoms: _392  and  _394
REMARK  167  A    between atoms: _394  and  _395
REMARK  168  A    between atoms: _394  and  _397
REMARK  169  A    between atoms: _397  and  _398
REMARK  170  A    between atoms: _398  and  _399
REMARK  171  A    between atoms: _404  and  _406
REMARK  172  A    between atoms: _406  and  _407
REMARK  173  A    between atoms: _409  and  _411
REMARK  174  A    between atoms: _411  and  _412
REMARK  175  A    between atoms: _411  and  _414
REMARK  176  A    between atoms: _414  and  _415
REMARK  177  A    between atoms: _416  and  _418
REMARK  178  A    between atoms: _418  and  _419
REMARK  179  A    between atoms: _422  and  _424
REMARK  180  A    between atoms: _424  and  _425
REMARK  181  A    between atoms: _424  and  _427
REMARK  182  A    between atoms: _427  and  _428
REMARK  183  A    between atoms: _431  and  _433
REMARK  184  A    between atoms: _433  and  _434
REMARK  185  A    between atoms: _433  and  _436
REMARK  186  A    between atoms: _436  and  _437
REMARK  187  A    between atoms: _442  and  _444
REMARK  188  A    between atoms: _444  and  _445
REMARK  189  A    between atoms: _444  and  _447
REMARK  190  A    between atoms: _447  and  _448
REMARK  191  A    between atoms: _454  and  _456
REMARK  192  A    between atoms: _456  and  _457
REMARK  193  A    between atoms: _459  and  _461
REMARK  194  A    between atoms: _461  and  _462
REMARK  195  A    between atoms: _461  and  _464
REMARK  196  A    between atoms: _467  and  _469
REMARK  197  A    between atoms: _469  and  _470
REMARK  198  A    between atoms: _469  and  _472
REMARK  199  A    between atoms: _472  and  _473
REMARK  200  A    between atoms: _478  and  _479
REMARK                            x       y       z     vdW  Elec       q    Type
REMARK                         _______ _______ _______ _____ _____    ______ ____
ROOT
ATOM      1  O   HOH     1       5.029  31.138  33.731  0.00  0.00    +0.000 OA
ENDROOT
TORSDOF 0
REMARK  Name = ../refined-set-2016/4na9/4na9_pocket.pdb
REMARK  200 active torsions:
REMARK  status: ('A' for Active; 'I' for Inactive)
REMARK    1  A    between atoms: _1  and  _5
REMARK    2  A    between atoms: _5  and  _6
REMARK    3  A    between atoms: _5  and  _8
REMARK    4  A    between atoms: _8  and  _9
REMARK    5  A    between atoms: _12  and  _14
REMARK    6  A    between atoms: _14  and  _15
REMARK    7  A    between atoms: _14  and  _17
REMARK    8  A    between atoms: _20  and  _22
REMARK    9  A    between atoms: _22  and  _23
REMARK   10  A    between atoms: _22  and  _25
REMARK   11  A    between atoms: _25  and  _26
REMARK   12  A    between atoms: _26  and  _27
REMARK   13  A    between atoms: _32  and  _34
REMARK   14  A    between atoms: _34  and  _35
REMARK   15  A    between atoms: _34  and  _37
REMARK   16  A    between atoms: _37  and  _38
REMARK   17  A    between atoms: _41  and  _43
REMARK   18  A    between atoms: _43  and  _44
REMARK   19  A    between atoms: _43  and  _46
REMARK   20  A    between atoms: _46  and  _47
REMARK   21  A    between atoms: _47  and  _82
REMARK   22  A    between atoms: _48  and  _50
REMARK   23  A    between atoms: _50  and  _51
REMARK   24  A    between atoms: _53  and  _55
REMARK   25  A    between atoms: _55  and  _56
REMARK   26  A    between atoms: _59  and  _61
REMARK   27  A    between atoms: _61  and  _62
REMARK   28  A    between atoms: _65  and  _67
REMARK   29  A    between atoms: _67  and  _68
REMARK   30  A    between atoms: _67  and  _70
REMARK   31  A    between atoms: _70  and  _71
REMARK   32  A    between atoms: _76  and  _78
REMARK   33  A    between atoms: _78  and  _79
REMARK   34  A    between atoms: _78  and  _81
REMARK   35  A    between atoms: _81  and  _82
REMARK   36  A    between atoms: _83  and  _85
REMARK   37  A    between atoms: _85  and  _86
REMARK   38  A    between atoms: _85  and  _88
REMARK   39  A    between atoms: _88  and  _89
REMARK   40  A    between atoms: _95  and  _97
REMARK   41  A    between atoms: _97  and  _98
REMARK   42  A    between atoms: _97  and  _100
REMARK   43  A    between atoms: _100  and  _101
REMARK   44  A    between atoms: _104  and  _106
REMARK   45  A    between atoms: _106  and  _107
REMARK   46  A    between atoms: _106  and  _109
REMARK   47  A    between atoms: _109  and  _110
REMARK   48  A    between atoms: _110  and  _111
REMARK   49  A    between atoms: _111  and  _112
REMARK   50  A    between atoms: _112  and  _113
REMARK   51  A    between atoms: _117  and  _119
REMARK   52  A    between atoms: _119  and  _120
REMARK   53  A    between atoms: _119  and  _122
REMARK   54  A    between atoms: _122  and  _123
REMARK   55  A    between atoms: _128  and  _129
REMARK   56  A    between atoms: _132  and  _133
REMARK   57  A    between atoms: _138  and  _140
REMARK   58  A    between atoms: _140  and  _141
REMARK   59  A    between atoms: _143  and  _145
REMARK   60  A    between atoms: _145  and  _146
REMARK   61  A    between atoms: _145  and  _148
REMARK   62  A    between atoms: _148  and  _149
REMARK   63  A    between atoms: _152  and  _154
REMARK   64  A    between atoms: _154  and  _155
REMARK   65  A    between atoms: _154  and  _157
REMARK   66  A    between atoms: _157  and  _158
REMARK   67  A    between atoms: _161  and  _163
REMARK   68  A    between atoms: _163  and  _164
REMARK   69  A    between atoms: _163  and  _166
REMARK   70  A    between atoms: _166  and  _167
REMARK   71  A    between atoms: _170  and  _172
REMARK   72  A    between atoms: _172  and  _173
REMARK   73  A    between atoms: _172  and  _175
REMARK   74  A    between atoms: _178  and  _180
REMARK   75  A    between atoms: _180  and  _181
REMARK   76  A    between atoms: _183  and  _185
REMARK   77  A    between atoms: _185  and  _186
REMARK   78  A    between atoms: _185  and  _188
REMARK   79  A    between atoms: _188  and  _189
REMARK   80  A    between atoms: _189  and  _190
REMARK   81  A    between atoms: _195  and  _197
REMARK   82  A    between atoms: _197  and  _198
REMARK   83  A    between atoms: _197  and  _200
REMARK   84  A    between atoms: _200  and  _201
REMARK   85  A    between atoms: _204  and  _206
REMARK   86  A    between atoms: _206  and  _207
REMARK   87  A    between atoms: _206  and  _209
REMARK   88  A    between atoms: _209  and  _210
REMARK   89  A    between atoms: _213  and  _215
REMARK   90  A    between atoms: _215  and  _216
REMARK   91  A    between atoms: _215  and  _218
REMARK   92  A    between atoms: _218  and  _219
REMARK   93  A    between atoms: _219  and  _220
REMARK   94  A    between atoms: _220  and  _221
REMARK   95  A    between atoms: _230  and  _232
REMARK   96  A    between atoms: _232  and  _233
REMARK   97  A    between atoms: _235  and  _237
REMARK   98  A    between atoms: _237  and  _238
REMARK   99  A    between atoms: _237  and  _240
REMARK  100  A    between atoms: _240  and  _241
REMARK  101  A    between atoms: _244  and  _246
REMARK  102  A    between atoms: _246  and  _247
REMARK  103  A    between atoms: _250  and  _252
REMARK  104  A    between atoms: _252  and  _253
REMARK  105  A    between atoms: _252  and  _255
REMARK  106  A    between atoms: _255  and  _256
REMARK  107  A    between atoms: _261  and  _262
REMARK  108  A    between atoms: _264  and  _266
REMARK  109  A    between atoms: _266  and  _267
REMARK  110  A    between atoms: _266  and  _269
REMARK  111  A    between atoms: _269  and  _270
REMARK  112  A    between atoms: _270  and  _271
REMARK  113  A    between atoms: _271  and  _272
REMARK  114  A    between atoms: _272  and  _273
REMARK  115  A    between atoms: _277  and  _279
REMARK  116  A    between atoms: _279  and  _280
REMARK  117  A    between atoms: _279  and  _282
REMARK  118  A    between atoms: _282  and  _283
REMARK  119  A    between atoms: _286  and  _288
REMARK  120  A    between atoms: _288  and  _289
REMARK  121  A    between atoms: _288  and  _291
REMARK  122  A    between atoms: _291  and  _292
REMARK  123  A    between atoms: _294  and  _296
REMARK  124  A    between atoms: _296  and  _297
REMARK  125  A    between atoms: _296  and  _299
REMARK  126  A    between atoms: _299  and  _300
REMARK  127  A    between atoms: _300  and  _415
REMARK  128  A    between atoms: _301  and  _303
REMARK  129  A    between atoms: _303  and  _304
REMARK  130  A    between atoms: _303  and  _306
REMARK  131  A    between atoms: _306  and  _307
REMARK  132  A    between atoms: _307  and  _308
REMARK  133  A    between atoms: _308  and  _309
REMARK  134  A    between atoms: _309  and  _310
REMARK  135  A    between atoms: _314  and  _316
REMARK  136  A    between atoms: _316  and  _317
REMARK  137  A    between atoms: _319  and  _321
REMARK  138  A    between atoms: _321  and  _322
REMARK  139  A    between atoms: _321  and  _324
REMARK  140  A    between atoms: _324  and  _325
REMARK  141  A    between atoms: _328  and  _330
REMARK  142  A    between atoms: _330  and  _331
REMARK  143  A    between atoms: _330  and  _333
REMARK  144  A    between atoms: _333  and  _334
REMARK  145  A    between atoms: _336  and  _338
REMARK  146  A    between atoms: _338  and  _339
REMARK  147  A    between atoms: _341  and  _343
REMARK  148  A    between atoms: _343  and  _344
REMARK  149  A    between atoms: _346  and  _348
REMARK  150  A    between atoms: _348  and  _349
REMARK  151  A    between atoms: _348  and  _351
REMARK  152  A    between atoms: _351  and  _352
REMARK  153  A    between atoms: _355  and  _357
REMARK  154  A    between atoms: _357  and  _358
REMARK  155  A    between atoms: _357  and  _360
REMARK  156  A    between atoms: _363  and  _365
REMARK  157  A    between atoms: _365  and  _366
REMARK  158  A    between atoms: _365  and  _368
REMARK  159  A    between atoms: _368  and  _369
REMARK  160  A    between atoms: _371  and  _373
REMARK  161  A    between atoms: _373  and  _374
REMARK  162  A    between atoms: _373  and  _376
REMARK  163  A    between atoms: _376  and  _377
REMARK  164  A    between atoms: _387  and  _389
REMARK  165  A    between atoms: _389  and  _390
REMARK  166  A    between atoms: _392  and  _394
REMARK  167  A    between atoms: _394  and  _395
REMARK  168  A    between atoms: _394  and  _397
REMARK  169  A    between atoms: _397  and  _398
REMARK  170  A    between atoms: _398  and  _399
REMARK  171  A    between atoms: _404  and  _406
REMARK  172  A    between atoms: _406  and  _407
REMARK  173  A    between atoms: _409  and  _411
REMARK  174  A    between atoms: _411  and  _412
REMARK  175  A    between atoms: _411  and  _414
REMARK  176  A    between atoms: _414  and  _415
REMARK  177  A    between atoms: _416  and  _418
REMARK  178  A    between atoms: _418  and  _419
REMARK  179  A    between atoms: _422  and  _424
REMARK  180  A    between atoms: _424  and  _425
REMARK  181  A    between atoms: _424  and  _427
REMARK  182  A    between atoms: _427  and  _428
REMARK  183  A    between atoms: _431  and  _433
REMARK  184  A    between atoms: _433  and  _434
REMARK  185  A    between atoms: _433  and  _436
REMARK  186  A    between atoms: _436  and  _437
REMARK  187  A    between atoms: _442  and  _444
REMARK  188  A    between atoms: _444  and  _445
REMARK  189  A    between atoms: _444  and  _447
REMARK  190  A    between atoms: _447  and  _448
REMARK  191  A    between atoms: _454  and  _456
REMARK  192  A    between atoms: _456  and  _457
REMARK  193  A    between atoms: _459  and  _461
REMARK  194  A    between atoms: _461  and  _462
REMARK  195  A    between atoms: _461  and  _464
REMARK  196  A    between atoms: _467  and  _469
REMARK  197  A    between atoms: _469  and  _470
REMARK  198  A    between atoms: _469  and  _472
REMARK  199  A    between atoms: _472  and  _473
REMARK  200  A    between atoms: _478  and  _479
REMARK                            x       y       z     vdW  Elec       q    Type
REMARK                         _______ _______ _______ _____ _____    ______ ____
ROOT
ATOM      1  O   HOH     1      13.830  41.411  20.638  0.00  0.00    +0.000 OA
ENDROOT
TORSDOF 0
REMARK  Name = ../refined-set-2016/4na9/4na9_pocket.pdb
REMARK  200 active torsions:
REMARK  status: ('A' for Active; 'I' for Inactive)
REMARK    1  A    between atoms: _1  and  _5
REMARK    2  A    between atoms: _5  and  _6
REMARK    3  A    between atoms: _5  and  _8
REMARK    4  A    between atoms: _8  and  _9
REMARK    5  A    between atoms: _12  and  _14
REMARK    6  A    between atoms: _14  and  _15
REMARK    7  A    between atoms: _14  and  _17
REMARK    8  A    between atoms: _20  and  _22
REMARK    9  A    between atoms: _22  and  _23
REMARK   10  A    between atoms: _22  and  _25
REMARK   11  A    between atoms: _25  and  _26
REMARK   12  A    between atoms: _26  and  _27
REMARK   13  A    between atoms: _32  and  _34
REMARK   14  A    between atoms: _34  and  _35
REMARK   15  A    between atoms: _34  and  _37
REMARK   16  A    between atoms: _37  and  _38
REMARK   17  A    between atoms: _41  and  _43
REMARK   18  A    between atoms: _43  and  _44
REMARK   19  A    between atoms: _43  and  _46
REMARK   20  A    between atoms: _46  and  _47
REMARK   21  A    between atoms: _47  and  _82
REMARK   22  A    between atoms: _48  and  _50
REMARK   23  A    between atoms: _50  and  _51
REMARK   24  A    between atoms: _53  and  _55
REMARK   25  A    between atoms: _55  and  _56
REMARK   26  A    between atoms: _59  and  _61
REMARK   27  A    between atoms: _61  and  _62
REMARK   28  A    between atoms: _65  and  _67
REMARK   29  A    between atoms: _67  and  _68
REMARK   30  A    between atoms: _67  and  _70
REMARK   31  A    between atoms: _70  and  _71
REMARK   32  A    between atoms: _76  and  _78
REMARK   33  A    between atoms: _78  and  _79
REMARK   34  A    between atoms: _78  and  _81
REMARK   35  A    between atoms: _81  and  _82
REMARK   36  A    between atoms: _83  and  _85
REMARK   37  A    between atoms: _85  and  _86
REMARK   38  A    between atoms: _85  and  _88
REMARK   39  A    between atoms: _88  and  _89
REMARK   40  A    between atoms: _95  and  _97
REMARK   41  A    between atoms: _97  and  _98
REMARK   42  A    between atoms: _97  and  _100
REMARK   43  A    between atoms: _100  and  _101
REMARK   44  A    between atoms: _104  and  _106
REMARK   45  A    between atoms: _106  and  _107
REMARK   46  A    between atoms: _106  and  _109
REMARK   47  A    between atoms: _109  and  _110
REMARK   48  A    between atoms: _110  and  _111
REMARK   49  A    between atoms: _111  and  _112
REMARK   50  A    between atoms: _112  and  _113
REMARK   51  A    between atoms: _117  and  _119
REMARK   52  A    between atoms: _119  and  _120
REMARK   53  A    between atoms: _119  and  _122
REMARK   54  A    between atoms: _122  and  _123
REMARK   55  A    between atoms: _128  and  _129
REMARK   56  A    between atoms: _132  and  _133
REMARK   57  A    between atoms: _138  and  _140
REMARK   58  A    between atoms: _140  and  _141
REMARK   59  A    between atoms: _143  and  _145
REMARK   60  A    between atoms: _145  and  _146
REMARK   61  A    between atoms: _145  and  _148
REMARK   62  A    between atoms: _148  and  _149
REMARK   63  A    between atoms: _152  and  _154
REMARK   64  A    between atoms: _154  and  _155
REMARK   65  A    between atoms: _154  and  _157
REMARK   66  A    between atoms: _157  and  _158
REMARK   67  A    between atoms: _161  and  _163
REMARK   68  A    between atoms: _163  and  _164
REMARK   69  A    between atoms: _163  and  _166
REMARK   70  A    between atoms: _166  and  _167
REMARK   71  A    between atoms: _170  and  _172
REMARK   72  A    between atoms: _172  and  _173
REMARK   73  A    between atoms: _172  and  _175
REMARK   74  A    between atoms: _178  and  _180
REMARK   75  A    between atoms: _180  and  _181
REMARK   76  A    between atoms: _183  and  _185
REMARK   77  A    between atoms: _185  and  _186
REMARK   78  A    between atoms: _185  and  _188
REMARK   79  A    between atoms: _188  and  _189
REMARK   80  A    between atoms: _189  and  _190
REMARK   81  A    between atoms: _195  and  _197
REMARK   82  A    between atoms: _197  and  _198
REMARK   83  A    between atoms: _197  and  _200
REMARK   84  A    between atoms: _200  and  _201
REMARK   85  A    between atoms: _204  and  _206
REMARK   86  A    between atoms: _206  and  _207
REMARK   87  A    between atoms: _206  and  _209
REMARK   88  A    between atoms: _209  and  _210
REMARK   89  A    between atoms: _213  and  _215
REMARK   90  A    between atoms: _215  and  _216
REMARK   91  A    between atoms: _215  and  _218
REMARK   92  A    between atoms: _218  and  _219
REMARK   93  A    between atoms: _219  and  _220
REMARK   94  A    between atoms: _220  and  _221
REMARK   95  A    between atoms: _230  and  _232
REMARK   96  A    between atoms: _232  and  _233
REMARK   97  A    between atoms: _235  and  _237
REMARK   98  A    between atoms: _237  and  _238
REMARK   99  A    between atoms: _237  and  _240
REMARK  100  A    between atoms: _240  and  _241
REMARK  101  A    between atoms: _244  and  _246
REMARK  102  A    between atoms: _246  and  _247
REMARK  103  A    between atoms: _250  and  _252
REMARK  104  A    between atoms: _252  and  _253
REMARK  105  A    between atoms: _252  and  _255
REMARK  106  A    between atoms: _255  and  _256
REMARK  107  A    between atoms: _261  and  _262
REMARK  108  A    between atoms: _264  and  _266
REMARK  109  A    between atoms: _266  and  _267
REMARK  110  A    between atoms: _266  and  _269
REMARK  111  A    between atoms: _269  and  _270
REMARK  112  A    between atoms: _270  and  _271
REMARK  113  A    between atoms: _271  and  _272
REMARK  114  A    between atoms: _272  and  _273
REMARK  115  A    between atoms: _277  and  _279
REMARK  116  A    between atoms: _279  and  _280
REMARK  117  A    between atoms: _279  and  _282
REMARK  118  A    between atoms: _282  and  _283
REMARK  119  A    between atoms: _286  and  _288
REMARK  120  A    between atoms: _288  and  _289
REMARK  121  A    between atoms: _288  and  _291
REMARK  122  A    between atoms: _291  and  _292
REMARK  123  A    between atoms: _294  and  _296
REMARK  124  A    between atoms: _296  and  _297
REMARK  125  A    between atoms: _296  and  _299
REMARK  126  A    between atoms: _299  and  _300
REMARK  127  A    between atoms: _300  and  _415
REMARK  128  A    between atoms: _301  and  _303
REMARK  129  A    between atoms: _303  and  _304
REMARK  130  A    between atoms: _303  and  _306
REMARK  131  A    between atoms: _306  and  _307
REMARK  132  A    between atoms: _307  and  _308
REMARK  133  A    between atoms: _308  and  _309
REMARK  134  A    between atoms: _309  and  _310
REMARK  135  A    between atoms: _314  and  _316
REMARK  136  A    between atoms: _316  and  _317
REMARK  137  A    between atoms: _319  and  _321
REMARK  138  A    between atoms: _321  and  _322
REMARK  139  A    between atoms: _321  and  _324
REMARK  140  A    between atoms: _324  and  _325
REMARK  141  A    between atoms: _328  and  _330
REMARK  142  A    between atoms: _330  and  _331
REMARK  143  A    between atoms: _330  and  _333
REMARK  144  A    between atoms: _333  and  _334
REMARK  145  A    between atoms: _336  and  _338
REMARK  146  A    between atoms: _338  and  _339
REMARK  147  A    between atoms: _341  and  _343
REMARK  148  A    between atoms: _343  and  _344
REMARK  149  A    between atoms: _346  and  _348
REMARK  150  A    between atoms: _348  and  _349
REMARK  151  A    between atoms: _348  and  _351
REMARK  152  A    between atoms: _351  and  _352
REMARK  153  A    between atoms: _355  and  _357
REMARK  154  A    between atoms: _357  and  _358
REMARK  155  A    between atoms: _357  and  _360
REMARK  156  A    between atoms: _363  and  _365
REMARK  157  A    between atoms: _365  and  _366
REMARK  158  A    between atoms: _365  and  _368
REMARK  159  A    between atoms: _368  and  _369
REMARK  160  A    between atoms: _371  and  _373
REMARK  161  A    between atoms: _373  and  _374
REMARK  162  A    between atoms: _373  and  _376
REMARK  163  A    between atoms: _376  and  _377
REMARK  164  A    between atoms: _387  and  _389
REMARK  165  A    between atoms: _389  and  _390
REMARK  166  A    between atoms: _392  and  _394
REMARK  167  A    between atoms: _394  and  _395
REMARK  168  A    between atoms: _394  and  _397
REMARK  169  A    between atoms: _397  and  _398
REMARK  170  A    between atoms: _398  and  _399
REMARK  171  A    between atoms: _404  and  _406
REMARK  172  A    between atoms: _406  and  _407
REMARK  173  A    between atoms: _409  and  _411
REMARK  174  A    between atoms: _411  and  _412
REMARK  175  A    between atoms: _411  and  _414
REMARK  176  A    between atoms: _414  and  _415
REMARK  177  A    between atoms: _416  and  _418
REMARK  178  A    between atoms: _418  and  _419
REMARK  179  A    between atoms: _422  and  _424
REMARK  180  A    between atoms: _424  and  _425
REMARK  181  A    between atoms: _424  and  _427
REMARK  182  A    between atoms: _427  and  _428
REMARK  183  A    between atoms: _431  and  _433
REMARK  184  A    between atoms: _433  and  _434
REMARK  185  A    between atoms: _433  and  _436
REMARK  186  A    between atoms: _436  and  _437
REMARK  187  A    between atoms: _442  and  _444
REMARK  188  A    between atoms: _444  and  _445
REMARK  189  A    between atoms: _444  and  _447
REMARK  190  A    between atoms: _447  and  _448
REMARK  191  A    between atoms: _454  and  _456
REMARK  192  A    between atoms: _456  and  _457
REMARK  193  A    between atoms: _459  and  _461
REMARK  194  A    between atoms: _461  and  _462
REMARK  195  A    between atoms: _461  and  _464
REMARK  196  A    between atoms: _467  and  _469
REMARK  197  A    between atoms: _469  and  _470
REMARK  198  A    between atoms: _469  and  _472
REMARK  199  A    between atoms: _472  and  _473
REMARK  200  A    between atoms: _478  and  _479
REMARK                            x       y       z     vdW  Elec       q    Type
REMARK                         _______ _______ _______ _____ _____    ______ ____
ROOT
ATOM      1  O   HOH     1      12.545  28.157  31.862  0.00  0.00    +0.000 OA
ENDROOT
TORSDOF 0
REMARK  Name = ../refined-set-2016/4na9/4na9_pocket.pdb
REMARK  200 active torsions:
REMARK  status: ('A' for Active; 'I' for Inactive)
REMARK    1  A    between atoms: _1  and  _5
REMARK    2  A    between atoms: _5  and  _6
REMARK    3  A    between atoms: _5  and  _8
REMARK    4  A    between atoms: _8  and  _9
REMARK    5  A    between atoms: _12  and  _14
REMARK    6  A    between atoms: _14  and  _15
REMARK    7  A    between atoms: _14  and  _17
REMARK    8  A    between atoms: _20  and  _22
REMARK    9  A    between atoms: _22  and  _23
REMARK   10  A    between atoms: _22  and  _25
REMARK   11  A    between atoms: _25  and  _26
REMARK   12  A    between atoms: _26  and  _27
REMARK   13  A    between atoms: _32  and  _34
REMARK   14  A    between atoms: _34  and  _35
REMARK   15  A    between atoms: _34  and  _37
REMARK   16  A    between atoms: _37  and  _38
REMARK   17  A    between atoms: _41  and  _43
REMARK   18  A    between atoms: _43  and  _44
REMARK   19  A    between atoms: _43  and  _46
REMARK   20  A    between atoms: _46  and  _47
REMARK   21  A    between atoms: _47  and  _82
REMARK   22  A    between atoms: _48  and  _50
REMARK   23  A    between atoms: _50  and  _51
REMARK   24  A    between atoms: _53  and  _55
REMARK   25  A    between atoms: _55  and  _56
REMARK   26  A    between atoms: _59  and  _61
REMARK   27  A    between atoms: _61  and  _62
REMARK   28  A    between atoms: _65  and  _67
REMARK   29  A    between atoms: _67  and  _68
REMARK   30  A    between atoms: _67  and  _70
REMARK   31  A    between atoms: _70  and  _71
REMARK   32  A    between atoms: _76  and  _78
REMARK   33  A    between atoms: _78  and  _79
REMARK   34  A    between atoms: _78  and  _81
REMARK   35  A    between atoms: _81  and  _82
REMARK   36  A    between atoms: _83  and  _85
REMARK   37  A    between atoms: _85  and  _86
REMARK   38  A    between atoms: _85  and  _88
REMARK   39  A    between atoms: _88  and  _89
REMARK   40  A    between atoms: _95  and  _97
REMARK   41  A    between atoms: _97  and  _98
REMARK   42  A    between atoms: _97  and  _100
REMARK   43  A    between atoms: _100  and  _101
REMARK   44  A    between atoms: _104  and  _106
REMARK   45  A    between atoms: _106  and  _107
REMARK   46  A    between atoms: _106  and  _109
REMARK   47  A    between atoms: _109  and  _110
REMARK   48  A    between atoms: _110  and  _111
REMARK   49  A    between atoms: _111  and  _112
REMARK   50  A    between atoms: _112  and  _113
REMARK   51  A    between atoms: _117  and  _119
REMARK   52  A    between atoms: _119  and  _120
REMARK   53  A    between atoms: _119  and  _122
REMARK   54  A    between atoms: _122  and  _123
REMARK   55  A    between atoms: _128  and  _129
REMARK   56  A    between atoms: _132  and  _133
REMARK   57  A    between atoms: _138  and  _140
REMARK   58  A    between atoms: _140  and  _141
REMARK   59  A    between atoms: _143  and  _145
REMARK   60  A    between atoms: _145  and  _146
REMARK   61  A    between atoms: _145  and  _148
REMARK   62  A    between atoms: _148  and  _149
REMARK   63  A    between atoms: _152  and  _154
REMARK   64  A    between atoms: _154  and  _155
REMARK   65  A    between atoms: _154  and  _157
REMARK   66  A    between atoms: _157  and  _158
REMARK   67  A    between atoms: _161  and  _163
REMARK   68  A    between atoms: _163  and  _164
REMARK   69  A    between atoms: _163  and  _166
REMARK   70  A    between atoms: _166  and  _167
REMARK   71  A    between atoms: _170  and  _172
REMARK   72  A    between atoms: _172  and  _173
REMARK   73  A    between atoms: _172  and  _175
REMARK   74  A    between atoms: _178  and  _180
REMARK   75  A    between atoms: _180  and  _181
REMARK   76  A    between atoms: _183  and  _185
REMARK   77  A    between atoms: _185  and  _186
REMARK   78  A    between atoms: _185  and  _188
REMARK   79  A    between atoms: _188  and  _189
REMARK   80  A    between atoms: _189  and  _190
REMARK   81  A    between atoms: _195  and  _197
REMARK   82  A    between atoms: _197  and  _198
REMARK   83  A    between atoms: _197  and  _200
REMARK   84  A    between atoms: _200  and  _201
REMARK   85  A    between atoms: _204  and  _206
REMARK   86  A    between atoms: _206  and  _207
REMARK   87  A    between atoms: _206  and  _209
REMARK   88  A    between atoms: _209  and  _210
REMARK   89  A    between atoms: _213  and  _215
REMARK   90  A    between atoms: _215  and  _216
REMARK   91  A    between atoms: _215  and  _218
REMARK   92  A    between atoms: _218  and  _219
REMARK   93  A    between atoms: _219  and  _220
REMARK   94  A    between atoms: _220  and  _221
REMARK   95  A    between atoms: _230  and  _232
REMARK   96  A    between atoms: _232  and  _233
REMARK   97  A    between atoms: _235  and  _237
REMARK   98  A    between atoms: _237  and  _238
REMARK   99  A    between atoms: _237  and  _240
REMARK  100  A    between atoms: _240  and  _241
REMARK  101  A    between atoms: _244  and  _246
REMARK  102  A    between atoms: _246  and  _247
REMARK  103  A    between atoms: _250  and  _252
REMARK  104  A    between atoms: _252  and  _253
REMARK  105  A    between atoms: _252  and  _255
REMARK  106  A    between atoms: _255  and  _256
REMARK  107  A    between atoms: _261  and  _262
REMARK  108  A    between atoms: _264  and  _266
REMARK  109  A    between atoms: _266  and  _267
REMARK  110  A    between atoms: _266  and  _269
REMARK  111  A    between atoms: _269  and  _270
REMARK  112  A    between atoms: _270  and  _271
REMARK  113  A    between atoms: _271  and  _272
REMARK  114  A    between atoms: _272  and  _273
REMARK  115  A    between atoms: _277  and  _279
REMARK  116  A    between atoms: _279  and  _280
REMARK  117  A    between atoms: _279  and  _282
REMARK  118  A    between atoms: _282  and  _283
REMARK  119  A    between atoms: _286  and  _288
REMARK  120  A    between atoms: _288  and  _289
REMARK  121  A    between atoms: _288  and  _291
REMARK  122  A    between atoms: _291  and  _292
REMARK  123  A    between atoms: _294  and  _296
REMARK  124  A    between atoms: _296  and  _297
REMARK  125  A    between atoms: _296  and  _299
REMARK  126  A    between atoms: _299  and  _300
REMARK  127  A    between atoms: _300  and  _415
REMARK  128  A    between atoms: _301  and  _303
REMARK  129  A    between atoms: _303  and  _304
REMARK  130  A    between atoms: _303  and  _306
REMARK  131  A    between atoms: _306  and  _307
REMARK  132  A    between atoms: _307  and  _308
REMARK  133  A    between atoms: _308  and  _309
REMARK  134  A    between atoms: _309  and  _310
REMARK  135  A    between atoms: _314  and  _316
REMARK  136  A    between atoms: _316  and  _317
REMARK  137  A    between atoms: _319  and  _321
REMARK  138  A    between atoms: _321  and  _322
REMARK  139  A    between atoms: _321  and  _324
REMARK  140  A    between atoms: _324  and  _325
REMARK  141  A    between atoms: _328  and  _330
REMARK  142  A    between atoms: _330  and  _331
REMARK  143  A    between atoms: _330  and  _333
REMARK  144  A    between atoms: _333  and  _334
REMARK  145  A    between atoms: _336  and  _338
REMARK  146  A    between atoms: _338  and  _339
REMARK  147  A    between atoms: _341  and  _343
REMARK  148  A    between atoms: _343  and  _344
REMARK  149  A    between atoms: _346  and  _348
REMARK  150  A    between atoms: _348  and  _349
REMARK  151  A    between atoms: _348  and  _351
REMARK  152  A    between atoms: _351  and  _352
REMARK  153  A    between atoms: _355  and  _357
REMARK  154  A    between atoms: _357  and  _358
REMARK  155  A    between atoms: _357  and  _360
REMARK  156  A    between atoms: _363  and  _365
REMARK  157  A    between atoms: _365  and  _366
REMARK  158  A    between atoms: _365  and  _368
REMARK  159  A    between atoms: _368  and  _369
REMARK  160  A    between atoms: _371  and  _373
REMARK  161  A    between atoms: _373  and  _374
REMARK  162  A    between atoms: _373  and  _376
REMARK  163  A    between atoms: _376  and  _377
REMARK  164  A    between atoms: _387  and  _389
REMARK  165  A    between atoms: _389  and  _390
REMARK  166  A    between atoms: _392  and  _394
REMARK  167  A    between atoms: _394  and  _395
REMARK  168  A    between atoms: _394  and  _397
REMARK  169  A    between atoms: _397  and  _398
REMARK  170  A    between atoms: _398  and  _399
REMARK  171  A    between atoms: _404  and  _406
REMARK  172  A    between atoms: _406  and  _407
REMARK  173  A    between atoms: _409  and  _411
REMARK  174  A    between atoms: _411  and  _412
REMARK  175  A    between atoms: _411  and  _414
REMARK  176  A    between atoms: _414  and  _415
REMARK  177  A    between atoms: _416  and  _418
REMARK  178  A    between atoms: _418  and  _419
REMARK  179  A    between atoms: _422  and  _424
REMARK  180  A    between atoms: _424  and  _425
REMARK  181  A    between atoms: _424  and  _427
REMARK  182  A    between atoms: _427  and  _428
REMARK  183  A    between atoms: _431  and  _433
REMARK  184  A    between atoms: _433  and  _434
REMARK  185  A    between atoms: _433  and  _436
REMARK  186  A    between atoms: _436  and  _437
REMARK  187  A    between atoms: _442  and  _444
REMARK  188  A    between atoms: _444  and  _445
REMARK  189  A    between atoms: _444  and  _447
REMARK  190  A    between atoms: _447  and  _448
REMARK  191  A    between atoms: _454  and  _456
REMARK  192  A    between atoms: _456  and  _457
REMARK  193  A    between atoms: _459  and  _461
REMARK  194  A    between atoms: _461  and  _462
REMARK  195  A    between atoms: _461  and  _464
REMARK  196  A    between atoms: _467  and  _469
REMARK  197  A    between atoms: _469  and  _470
REMARK  198  A    between atoms: _469  and  _472
REMARK  199  A    between atoms: _472  and  _473
REMARK  200  A    between atoms: _478  and  _479
REMARK                            x       y       z     vdW  Elec       q    Type
REMARK                         _______ _______ _______ _____ _____    ______ ____
ROOT
ATOM      1  O   HOH     1       9.976  30.101  27.674  0.00  0.00    +0.000 OA
ENDROOT
TORSDOF 0
