REMARK  Name = ../refined-set-2016/3arv/3arv_pocket.pdb
REMARK  133 active torsions:
REMARK  status: ('A' for Active; 'I' for Inactive)
REMARK    1  A    between atoms: _1  and  _3
REMARK    2  A    between atoms: _3  and  _4
REMARK    3  A    between atoms: _3  and  _6
REMARK    4  A    between atoms: _6  and  _7
REMARK    5  A    between atoms: _17  and  _19
REMARK    6  A    between atoms: _19  and  _20
REMARK    7  A    between atoms: _19  and  _22
REMARK    8  A    between atoms: _22  and  _23
REMARK    9  A    between atoms: _29  and  _31
REMARK   10  A    between atoms: _31  and  _32
REMARK   11  A    between atoms: _31  and  _34
REMARK   12  A    between atoms: _34  and  _35
REMARK   13  A    between atoms: _37  and  _39
REMARK   14  A    between atoms: _39  and  _40
REMARK   15  A    between atoms: _39  and  _42
REMARK   16  A    between atoms: _45  and  _47
REMARK   17  A    between atoms: _47  and  _48
REMARK   18  A    between atoms: _47  and  _50
REMARK   19  A    between atoms: _50  and  _51
REMARK   20  A    between atoms: _53  and  _55
REMARK   21  A    between atoms: _55  and  _56
REMARK   22  A    between atoms: _55  and  _58
REMARK   23  A    between atoms: _61  and  _63
REMARK   24  A    between atoms: _63  and  _64
REMARK   25  A    between atoms: _66  and  _68
REMARK   26  A    between atoms: _68  and  _69
REMARK   27  A    between atoms: _68  and  _71
REMARK   28  A    between atoms: _71  and  _72
REMARK   29  A    between atoms: _82  and  _84
REMARK   30  A    between atoms: _84  and  _85
REMARK   31  A    between atoms: _84  and  _87
REMARK   32  A    between atoms: _87  and  _88
REMARK   33  A    between atoms: _91  and  _93
REMARK   34  A    between atoms: _93  and  _94
REMARK   35  A    between atoms: _93  and  _96
REMARK   36  A    between atoms: _96  and  _97
REMARK   37  A    between atoms: _100  and  _102
REMARK   38  A    between atoms: _102  and  _103
REMARK   39  A    between atoms: _102  and  _105
REMARK   40  A    between atoms: _105  and  _106
REMARK   41  A    between atoms: _106  and  _107
REMARK   42  A    between atoms: _110  and  _112
REMARK   43  A    between atoms: _112  and  _113
REMARK   44  A    between atoms: _112  and  _115
REMARK   45  A    between atoms: _115  and  _116
REMARK   46  A    between atoms: _122  and  _124
REMARK   47  A    between atoms: _124  and  _125
REMARK   48  A    between atoms: _127  and  _129
REMARK   49  A    between atoms: _129  and  _130
REMARK   50  A    between atoms: _132  and  _134
REMARK   51  A    between atoms: _134  and  _135
REMARK   52  A    between atoms: _138  and  _140
REMARK   53  A    between atoms: _140  and  _141
REMARK   54  A    between atoms: _140  and  _143
REMARK   55  A    between atoms: _143  and  _144
REMARK   56  A    between atoms: _144  and  _145
REMARK   57  A    between atoms: _145  and  _146
REMARK   58  A    between atoms: _146  and  _147
REMARK   59  A    between atoms: _151  and  _153
REMARK   60  A    between atoms: _153  and  _154
REMARK   61  A    between atoms: _153  and  _156
REMARK   62  A    between atoms: _156  and  _157
REMARK   63  A    between atoms: _157  and  _158
REMARK   64  A    between atoms: _160  and  _162
REMARK   65  A    between atoms: _162  and  _163
REMARK   66  A    between atoms: _162  and  _165
REMARK   67  A    between atoms: _165  and  _166
REMARK   68  A    between atoms: _171  and  _172
REMARK   69  A    between atoms: _174  and  _176
REMARK   70  A    between atoms: _176  and  _177
REMARK   71  A    between atoms: _176  and  _179
REMARK   72  A    between atoms: _179  and  _180
REMARK   73  A    between atoms: _183  and  _185
REMARK   74  A    between atoms: _185  and  _186
REMARK   75  A    between atoms: _185  and  _188
REMARK   76  A    between atoms: _188  and  _189
REMARK   77  A    between atoms: _195  and  _197
REMARK   78  A    between atoms: _197  and  _198
REMARK   79  A    between atoms: _197  and  _200
REMARK   80  A    between atoms: _200  and  _201
REMARK   81  A    between atoms: _206  and  _207
REMARK   82  A    between atoms: _209  and  _211
REMARK   83  A    between atoms: _211  and  _212
REMARK   84  A    between atoms: _214  and  _216
REMARK   85  A    between atoms: _216  and  _217
REMARK   86  A    between atoms: _219  and  _221
REMARK   87  A    between atoms: _221  and  _222
REMARK   88  A    between atoms: _221  and  _224
REMARK   89  A    between atoms: _224  and  _225
REMARK   90  A    between atoms: _235  and  _237
REMARK   91  A    between atoms: _237  and  _238
REMARK   92  A    between atoms: _237  and  _240
REMARK   93  A    between atoms: _240  and  _241
REMARK   94  A    between atoms: _246  and  _248
REMARK   95  A    between atoms: _248  and  _249
REMARK   96  A    between atoms: _248  and  _251
REMARK   97  A    between atoms: _251  and  _252
REMARK   98  A    between atoms: _257  and  _258
REMARK   99  A    between atoms: _260  and  _262
REMARK  100  A    between atoms: _262  and  _263
REMARK  101  A    between atoms: _262  and  _265
REMARK  102  A    between atoms: _265  and  _266
REMARK  103  A    between atoms: _271  and  _272
REMARK  104  A    between atoms: _274  and  _276
REMARK  105  A    between atoms: _276  and  _277
REMARK  106  A    between atoms: _276  and  _279
REMARK  107  A    between atoms: _279  and  _280
REMARK  108  A    between atoms: _280  and  _281
REMARK  109  A    between atoms: _281  and  _282
REMARK  110  A    between atoms: _291  and  _293
REMARK  111  A    between atoms: _293  and  _294
REMARK  112  A    between atoms: _293  and  _296
REMARK  113  A    between atoms: _296  and  _297
REMARK  114  A    between atoms: _297  and  _298
REMARK  115  A    between atoms: _298  and  _299
REMARK  116  A    between atoms: _299  and  _300
REMARK  117  A    between atoms: _304  and  _306
REMARK  118  A    between atoms: _306  and  _307
REMARK  119  A    between atoms: _306  and  _309
REMARK  120  A    between atoms: _309  and  _310
REMARK  121  A    between atoms: _310  and  _311
REMARK  122  A    between atoms: _314  and  _316
REMARK  123  A    between atoms: _316  and  _317
REMARK  124  A    between atoms: _316  and  _319
REMARK  125  A    between atoms: _322  and  _324
REMARK  126  A    between atoms: _324  and  _325
REMARK  127  A    between atoms: _324  and  _327
REMARK  128  A    between atoms: _327  and  _328
REMARK  129  A    between atoms: _338  and  _340
REMARK  130  A    between atoms: _340  and  _341
REMARK  131  A    between atoms: _340  and  _343
REMARK  132  A    between atoms: _343  and  _344
REMARK  133  A    between atoms: _344  and  _345
REMARK                            x       y       z     vdW  Elec       q    Type
REMARK                         _______ _______ _______ _____ _____    ______ ____
ROOT
ATOM      1  CG  TRP A   1       5.567  -2.954  30.766  0.00  0.00    -0.002 A 
ATOM      2  CD2 TRP A   1       5.627  -4.259  30.128  0.00  0.00    +0.013 A 
ATOM      3  CE3 TRP A   1       5.122  -5.517  30.464  0.00  0.00    +0.001 A 
ATOM      4  CZ3 TRP A   1       5.377  -6.583  29.590  0.00  0.00    +0.000 A 
ATOM      5  CH2 TRP A   1       6.181  -6.416  28.431  0.00  0.00    +0.001 A 
ATOM      6  CZ2 TRP A   1       6.718  -5.179  28.096  0.00  0.00    +0.017 A 
ATOM      7  CE2 TRP A   1       6.439  -4.122  28.981  0.00  0.00    +0.056 A 
ATOM      8  NE1 TRP A   1       6.812  -2.808  28.836  0.00  0.00    -0.352 N 
ATOM      9  HE1 TRP A   1       7.353  -2.387  28.054  0.00  0.00    +0.166 HD
ATOM     10  CD1 TRP A   1       6.301  -2.149  29.983  0.00  0.00    +0.068 A 
ENDROOT
BRANCH   1  11
ATOM     11  CB  TRP A   1       4.844  -2.554  31.982  0.00  0.00    +0.053 C 
BRANCH  11  12
ATOM     12  CA  TRP A   1       3.364  -2.161  31.779  0.00  0.00    +0.137 C 
BRANCH  12  13
ATOM     13  N   TRP A   1       2.643  -3.254  31.106  0.00  0.00    -0.239 NA
ATOM     14  H   TRP A   1       3.187  -3.920  30.521  0.00  0.00    +0.142 HD
ENDBRANCH  12  13
BRANCH  12  15
ATOM     15  C   TRP A   1       3.312  -0.884  31.009  0.00  0.00    +0.224 C 
ATOM     16  O   TRP A   1       3.913   0.140  31.465  0.00  0.00    -0.287 OA
ENDBRANCH  12  15
ENDBRANCH  11  12
ENDBRANCH   1  11
TORSDOF 4
REMARK  Name = ../refined-set-2016/3arv/3arv_pocket.pdb
REMARK  133 active torsions:
REMARK  status: ('A' for Active; 'I' for Inactive)
REMARK    1  A    between atoms: _1  and  _3
REMARK    2  A    between atoms: _3  and  _4
REMARK    3  A    between atoms: _3  and  _6
REMARK    4  A    between atoms: _6  and  _7
REMARK    5  A    between atoms: _17  and  _19
REMARK    6  A    between atoms: _19  and  _20
REMARK    7  A    between atoms: _19  and  _22
REMARK    8  A    between atoms: _22  and  _23
REMARK    9  A    between atoms: _29  and  _31
REMARK   10  A    between atoms: _31  and  _32
REMARK   11  A    between atoms: _31  and  _34
REMARK   12  A    between atoms: _34  and  _35
REMARK   13  A    between atoms: _37  and  _39
REMARK   14  A    between atoms: _39  and  _40
REMARK   15  A    between atoms: _39  and  _42
REMARK   16  A    between atoms: _45  and  _47
REMARK   17  A    between atoms: _47  and  _48
REMARK   18  A    between atoms: _47  and  _50
REMARK   19  A    between atoms: _50  and  _51
REMARK   20  A    between atoms: _53  and  _55
REMARK   21  A    between atoms: _55  and  _56
REMARK   22  A    between atoms: _55  and  _58
REMARK   23  A    between atoms: _61  and  _63
REMARK   24  A    between atoms: _63  and  _64
REMARK   25  A    between atoms: _66  and  _68
REMARK   26  A    between atoms: _68  and  _69
REMARK   27  A    between atoms: _68  and  _71
REMARK   28  A    between atoms: _71  and  _72
REMARK   29  A    between atoms: _82  and  _84
REMARK   30  A    between atoms: _84  and  _85
REMARK   31  A    between atoms: _84  and  _87
REMARK   32  A    between atoms: _87  and  _88
REMARK   33  A    between atoms: _91  and  _93
REMARK   34  A    between atoms: _93  and  _94
REMARK   35  A    between atoms: _93  and  _96
REMARK   36  A    between atoms: _96  and  _97
REMARK   37  A    between atoms: _100  and  _102
REMARK   38  A    between atoms: _102  and  _103
REMARK   39  A    between atoms: _102  and  _105
REMARK   40  A    between atoms: _105  and  _106
REMARK   41  A    between atoms: _106  and  _107
REMARK   42  A    between atoms: _110  and  _112
REMARK   43  A    between atoms: _112  and  _113
REMARK   44  A    between atoms: _112  and  _115
REMARK   45  A    between atoms: _115  and  _116
REMARK   46  A    between atoms: _122  and  _124
REMARK   47  A    between atoms: _124  and  _125
REMARK   48  A    between atoms: _127  and  _129
REMARK   49  A    between atoms: _129  and  _130
REMARK   50  A    between atoms: _132  and  _134
REMARK   51  A    between atoms: _134  and  _135
REMARK   52  A    between atoms: _138  and  _140
REMARK   53  A    between atoms: _140  and  _141
REMARK   54  A    between atoms: _140  and  _143
REMARK   55  A    between atoms: _143  and  _144
REMARK   56  A    between atoms: _144  and  _145
REMARK   57  A    between atoms: _145  and  _146
REMARK   58  A    between atoms: _146  and  _147
REMARK   59  A    between atoms: _151  and  _153
REMARK   60  A    between atoms: _153  and  _154
REMARK   61  A    between atoms: _153  and  _156
REMARK   62  A    between atoms: _156  and  _157
REMARK   63  A    between atoms: _157  and  _158
REMARK   64  A    between atoms: _160  and  _162
REMARK   65  A    between atoms: _162  and  _163
REMARK   66  A    between atoms: _162  and  _165
REMARK   67  A    between atoms: _165  and  _166
REMARK   68  A    between atoms: _171  and  _172
REMARK   69  A    between atoms: _174  and  _176
REMARK   70  A    between atoms: _176  and  _177
REMARK   71  A    between atoms: _176  and  _179
REMARK   72  A    between atoms: _179  and  _180
REMARK   73  A    between atoms: _183  and  _185
REMARK   74  A    between atoms: _185  and  _186
REMARK   75  A    between atoms: _185  and  _188
REMARK   76  A    between atoms: _188  and  _189
REMARK   77  A    between atoms: _195  and  _197
REMARK   78  A    between atoms: _197  and  _198
REMARK   79  A    between atoms: _197  and  _200
REMARK   80  A    between atoms: _200  and  _201
REMARK   81  A    between atoms: _206  and  _207
REMARK   82  A    between atoms: _209  and  _211
REMARK   83  A    between atoms: _211  and  _212
REMARK   84  A    between atoms: _214  and  _216
REMARK   85  A    between atoms: _216  and  _217
REMARK   86  A    between atoms: _219  and  _221
REMARK   87  A    between atoms: _221  and  _222
REMARK   88  A    between atoms: _221  and  _224
REMARK   89  A    between atoms: _224  and  _225
REMARK   90  A    between atoms: _235  and  _237
REMARK   91  A    between atoms: _237  and  _238
REMARK   92  A    between atoms: _237  and  _240
REMARK   93  A    between atoms: _240  and  _241
REMARK   94  A    between atoms: _246  and  _248
REMARK   95  A    between atoms: _248  and  _249
REMARK   96  A    between atoms: _248  and  _251
REMARK   97  A    between atoms: _251  and  _252
REMARK   98  A    between atoms: _257  and  _258
REMARK   99  A    between atoms: _260  and  _262
REMARK  100  A    between atoms: _262  and  _263
REMARK  101  A    between atoms: _262  and  _265
REMARK  102  A    between atoms: _265  and  _266
REMARK  103  A    between atoms: _271  and  _272
REMARK  104  A    between atoms: _274  and  _276
REMARK  105  A    between atoms: _276  and  _277
REMARK  106  A    between atoms: _276  and  _279
REMARK  107  A    between atoms: _279  and  _280
REMARK  108  A    between atoms: _280  and  _281
REMARK  109  A    between atoms: _281  and  _282
REMARK  110  A    between atoms: _291  and  _293
REMARK  111  A    between atoms: _293  and  _294
REMARK  112  A    between atoms: _293  and  _296
REMARK  113  A    between atoms: _296  and  _297
REMARK  114  A    between atoms: _297  and  _298
REMARK  115  A    between atoms: _298  and  _299
REMARK  116  A    between atoms: _299  and  _300
REMARK  117  A    between atoms: _304  and  _306
REMARK  118  A    between atoms: _306  and  _307
REMARK  119  A    between atoms: _306  and  _309
REMARK  120  A    between atoms: _309  and  _310
REMARK  121  A    between atoms: _310  and  _311
REMARK  122  A    between atoms: _314  and  _316
REMARK  123  A    between atoms: _316  and  _317
REMARK  124  A    between atoms: _316  and  _319
REMARK  125  A    between atoms: _322  and  _324
REMARK  126  A    between atoms: _324  and  _325
REMARK  127  A    between atoms: _324  and  _327
REMARK  128  A    between atoms: _327  and  _328
REMARK  129  A    between atoms: _338  and  _340
REMARK  130  A    between atoms: _340  and  _341
REMARK  131  A    between atoms: _340  and  _343
REMARK  132  A    between atoms: _343  and  _344
REMARK  133  A    between atoms: _344  and  _345
REMARK                            x       y       z     vdW  Elec       q    Type
REMARK                         _______ _______ _______ _____ _____    ______ ____
ROOT
ATOM      1  CB  PHE A   1       4.314 -11.422  28.600  0.00  0.00    +0.051 C 
ENDROOT
BRANCH   1   2
ATOM      2  CG  PHE A   1       4.788 -10.887  27.258  0.00  0.00    -0.020 A 
ATOM      3  CD2 PHE A   1       5.342  -9.632  27.145  0.00  0.00    -0.004 A 
ATOM      4  CE2 PHE A   1       5.705  -9.140  25.893  0.00  0.00    -0.000 A 
ATOM      5  CZ  PHE A   1       5.524  -9.951  24.721  0.00  0.00    -0.000 A 
ATOM      6  CE1 PHE A   1       4.974 -11.206  24.848  0.00  0.00    -0.000 A 
ATOM      7  CD1 PHE A   1       4.603 -11.658  26.110  0.00  0.00    -0.004 A 
ENDBRANCH   1   2
BRANCH   1   8
ATOM      8  CA  PHE A   1       2.841 -11.045  28.908  0.00  0.00    +0.137 C 
BRANCH   8   9
ATOM      9  N   PHE A   1       2.666  -9.604  29.080  0.00  0.00    -0.239 NA
ATOM     10  H   PHE A   1       2.894  -9.217  30.018  0.00  0.00    +0.142 HD
ENDBRANCH   8   9
BRANCH   8  11
ATOM     11  C   PHE A   1       2.495 -11.712  30.211  0.00  0.00    +0.224 C 
ATOM     12  O   PHE A   1       2.775 -11.152  31.314  0.00  0.00    -0.287 OA
ENDBRANCH   8  11
ENDBRANCH   1   8
TORSDOF 4
REMARK  Name = ../refined-set-2016/3arv/3arv_pocket.pdb
REMARK  133 active torsions:
REMARK  status: ('A' for Active; 'I' for Inactive)
REMARK    1  A    between atoms: _1  and  _3
REMARK    2  A    between atoms: _3  and  _4
REMARK    3  A    between atoms: _3  and  _6
REMARK    4  A    between atoms: _6  and  _7
REMARK    5  A    between atoms: _17  and  _19
REMARK    6  A    between atoms: _19  and  _20
REMARK    7  A    between atoms: _19  and  _22
REMARK    8  A    between atoms: _22  and  _23
REMARK    9  A    between atoms: _29  and  _31
REMARK   10  A    between atoms: _31  and  _32
REMARK   11  A    between atoms: _31  and  _34
REMARK   12  A    between atoms: _34  and  _35
REMARK   13  A    between atoms: _37  and  _39
REMARK   14  A    between atoms: _39  and  _40
REMARK   15  A    between atoms: _39  and  _42
REMARK   16  A    between atoms: _45  and  _47
REMARK   17  A    between atoms: _47  and  _48
REMARK   18  A    between atoms: _47  and  _50
REMARK   19  A    between atoms: _50  and  _51
REMARK   20  A    between atoms: _53  and  _55
REMARK   21  A    between atoms: _55  and  _56
REMARK   22  A    between atoms: _55  and  _58
REMARK   23  A    between atoms: _61  and  _63
REMARK   24  A    between atoms: _63  and  _64
REMARK   25  A    between atoms: _66  and  _68
REMARK   26  A    between atoms: _68  and  _69
REMARK   27  A    between atoms: _68  and  _71
REMARK   28  A    between atoms: _71  and  _72
REMARK   29  A    between atoms: _82  and  _84
REMARK   30  A    between atoms: _84  and  _85
REMARK   31  A    between atoms: _84  and  _87
REMARK   32  A    between atoms: _87  and  _88
REMARK   33  A    between atoms: _91  and  _93
REMARK   34  A    between atoms: _93  and  _94
REMARK   35  A    between atoms: _93  and  _96
REMARK   36  A    between atoms: _96  and  _97
REMARK   37  A    between atoms: _100  and  _102
REMARK   38  A    between atoms: _102  and  _103
REMARK   39  A    between atoms: _102  and  _105
REMARK   40  A    between atoms: _105  and  _106
REMARK   41  A    between atoms: _106  and  _107
REMARK   42  A    between atoms: _110  and  _112
REMARK   43  A    between atoms: _112  and  _113
REMARK   44  A    between atoms: _112  and  _115
REMARK   45  A    between atoms: _115  and  _116
REMARK   46  A    between atoms: _122  and  _124
REMARK   47  A    between atoms: _124  and  _125
REMARK   48  A    between atoms: _127  and  _129
REMARK   49  A    between atoms: _129  and  _130
REMARK   50  A    between atoms: _132  and  _134
REMARK   51  A    between atoms: _134  and  _135
REMARK   52  A    between atoms: _138  and  _140
REMARK   53  A    between atoms: _140  and  _141
REMARK   54  A    between atoms: _140  and  _143
REMARK   55  A    between atoms: _143  and  _144
REMARK   56  A    between atoms: _144  and  _145
REMARK   57  A    between atoms: _145  and  _146
REMARK   58  A    between atoms: _146  and  _147
REMARK   59  A    between atoms: _151  and  _153
REMARK   60  A    between atoms: _153  and  _154
REMARK   61  A    between atoms: _153  and  _156
REMARK   62  A    between atoms: _156  and  _157
REMARK   63  A    between atoms: _157  and  _158
REMARK   64  A    between atoms: _160  and  _162
REMARK   65  A    between atoms: _162  and  _163
REMARK   66  A    between atoms: _162  and  _165
REMARK   67  A    between atoms: _165  and  _166
REMARK   68  A    between atoms: _171  and  _172
REMARK   69  A    between atoms: _174  and  _176
REMARK   70  A    between atoms: _176  and  _177
REMARK   71  A    between atoms: _176  and  _179
REMARK   72  A    between atoms: _179  and  _180
REMARK   73  A    between atoms: _183  and  _185
REMARK   74  A    between atoms: _185  and  _186
REMARK   75  A    between atoms: _185  and  _188
REMARK   76  A    between atoms: _188  and  _189
REMARK   77  A    between atoms: _195  and  _197
REMARK   78  A    between atoms: _197  and  _198
REMARK   79  A    between atoms: _197  and  _200
REMARK   80  A    between atoms: _200  and  _201
REMARK   81  A    between atoms: _206  and  _207
REMARK   82  A    between atoms: _209  and  _211
REMARK   83  A    between atoms: _211  and  _212
REMARK   84  A    between atoms: _214  and  _216
REMARK   85  A    between atoms: _216  and  _217
REMARK   86  A    between atoms: _219  and  _221
REMARK   87  A    between atoms: _221  and  _222
REMARK   88  A    between atoms: _221  and  _224
REMARK   89  A    between atoms: _224  and  _225
REMARK   90  A    between atoms: _235  and  _237
REMARK   91  A    between atoms: _237  and  _238
REMARK   92  A    between atoms: _237  and  _240
REMARK   93  A    between atoms: _240  and  _241
REMARK   94  A    between atoms: _246  and  _248
REMARK   95  A    between atoms: _248  and  _249
REMARK   96  A    between atoms: _248  and  _251
REMARK   97  A    between atoms: _251  and  _252
REMARK   98  A    between atoms: _257  and  _258
REMARK   99  A    between atoms: _260  and  _262
REMARK  100  A    between atoms: _262  and  _263
REMARK  101  A    between atoms: _262  and  _265
REMARK  102  A    between atoms: _265  and  _266
REMARK  103  A    between atoms: _271  and  _272
REMARK  104  A    between atoms: _274  and  _276
REMARK  105  A    between atoms: _276  and  _277
REMARK  106  A    between atoms: _276  and  _279
REMARK  107  A    between atoms: _279  and  _280
REMARK  108  A    between atoms: _280  and  _281
REMARK  109  A    between atoms: _281  and  _282
REMARK  110  A    between atoms: _291  and  _293
REMARK  111  A    between atoms: _293  and  _294
REMARK  112  A    between atoms: _293  and  _296
REMARK  113  A    between atoms: _296  and  _297
REMARK  114  A    between atoms: _297  and  _298
REMARK  115  A    between atoms: _298  and  _299
REMARK  116  A    between atoms: _299  and  _300
REMARK  117  A    between atoms: _304  and  _306
REMARK  118  A    between atoms: _306  and  _307
REMARK  119  A    between atoms: _306  and  _309
REMARK  120  A    between atoms: _309  and  _310
REMARK  121  A    between atoms: _310  and  _311
REMARK  122  A    between atoms: _314  and  _316
REMARK  123  A    between atoms: _316  and  _317
REMARK  124  A    between atoms: _316  and  _319
REMARK  125  A    between atoms: _322  and  _324
REMARK  126  A    between atoms: _324  and  _325
REMARK  127  A    between atoms: _324  and  _327
REMARK  128  A    between atoms: _327  and  _328
REMARK  129  A    between atoms: _338  and  _340
REMARK  130  A    between atoms: _340  and  _341
REMARK  131  A    between atoms: _340  and  _343
REMARK  132  A    between atoms: _343  and  _344
REMARK  133  A    between atoms: _344  and  _345
REMARK                            x       y       z     vdW  Elec       q    Type
REMARK                         _______ _______ _______ _____ _____    ______ ____
ROOT
ATOM      1  C   SER A   1      15.194 -12.592  33.184  0.00  0.00    +0.241 C 
ATOM      2  N   VAL A   2      14.197 -12.717  34.075  0.00  0.00    -0.298 N 
ATOM      3  H   VAL A   2      13.999 -13.636  34.520  0.00  0.00    +0.150 HD
ATOM      4  O   SER A   1      15.495 -11.550  32.663  0.00  0.00    -0.274 OA
ENDROOT
BRANCH   1   5
ATOM      5  CA  SER A   1      15.955 -13.862  32.910  0.00  0.00    +0.174 C 
BRANCH   5   6
ATOM      6  N   SER A   1      15.892 -14.882  34.015  0.00  0.00    -0.236 NA
ATOM      7  H   SER A   1      15.474 -15.815  33.826  0.00  0.00    +0.142 HD
ENDBRANCH   5   6
BRANCH   5   8
ATOM      8  CB  SER A   1      15.464 -14.450  31.584  0.00  0.00    +0.163 C 
BRANCH   8   9
ATOM      9  OG  SER A   1      16.372 -15.496  31.173  0.00  0.00    -0.380 OA
ATOM     10  H   SER A   1      16.395 -16.203  31.866  0.00  0.00    +0.211 HD
ENDBRANCH   8   9
ENDBRANCH   5   8
ENDBRANCH   1   5
BRANCH   2  11
ATOM     11  CA  VAL A   2      13.387 -11.534  34.414  0.00  0.00    +0.137 C 
BRANCH  11  12
ATOM     12  CB  VAL A   2      12.133 -12.035  35.359  0.00  0.00    +0.026 C 
ATOM     13  CG2 VAL A   2      11.268 -10.925  35.801  0.00  0.00    +0.002 C 
ATOM     14  CG1 VAL A   2      11.326 -13.162  34.605  0.00  0.00    +0.002 C 
ENDBRANCH  11  12
BRANCH  11  15
ATOM     15  C   VAL A   2      14.249 -10.532  35.159  0.00  0.00    +0.227 C 
ATOM     16  O   VAL A   2      13.881  -9.341  35.168  0.00  0.00    -0.286 OA
ENDBRANCH  11  15
ENDBRANCH   2  11
TORSDOF 7
REMARK  Name = ../refined-set-2016/3arv/3arv_pocket.pdb
REMARK  133 active torsions:
REMARK  status: ('A' for Active; 'I' for Inactive)
REMARK    1  A    between atoms: _1  and  _3
REMARK    2  A    between atoms: _3  and  _4
REMARK    3  A    between atoms: _3  and  _6
REMARK    4  A    between atoms: _6  and  _7
REMARK    5  A    between atoms: _17  and  _19
REMARK    6  A    between atoms: _19  and  _20
REMARK    7  A    between atoms: _19  and  _22
REMARK    8  A    between atoms: _22  and  _23
REMARK    9  A    between atoms: _29  and  _31
REMARK   10  A    between atoms: _31  and  _32
REMARK   11  A    between atoms: _31  and  _34
REMARK   12  A    between atoms: _34  and  _35
REMARK   13  A    between atoms: _37  and  _39
REMARK   14  A    between atoms: _39  and  _40
REMARK   15  A    between atoms: _39  and  _42
REMARK   16  A    between atoms: _45  and  _47
REMARK   17  A    between atoms: _47  and  _48
REMARK   18  A    between atoms: _47  and  _50
REMARK   19  A    between atoms: _50  and  _51
REMARK   20  A    between atoms: _53  and  _55
REMARK   21  A    between atoms: _55  and  _56
REMARK   22  A    between atoms: _55  and  _58
REMARK   23  A    between atoms: _61  and  _63
REMARK   24  A    between atoms: _63  and  _64
REMARK   25  A    between atoms: _66  and  _68
REMARK   26  A    between atoms: _68  and  _69
REMARK   27  A    between atoms: _68  and  _71
REMARK   28  A    between atoms: _71  and  _72
REMARK   29  A    between atoms: _82  and  _84
REMARK   30  A    between atoms: _84  and  _85
REMARK   31  A    between atoms: _84  and  _87
REMARK   32  A    between atoms: _87  and  _88
REMARK   33  A    between atoms: _91  and  _93
REMARK   34  A    between atoms: _93  and  _94
REMARK   35  A    between atoms: _93  and  _96
REMARK   36  A    between atoms: _96  and  _97
REMARK   37  A    between atoms: _100  and  _102
REMARK   38  A    between atoms: _102  and  _103
REMARK   39  A    between atoms: _102  and  _105
REMARK   40  A    between atoms: _105  and  _106
REMARK   41  A    between atoms: _106  and  _107
REMARK   42  A    between atoms: _110  and  _112
REMARK   43  A    between atoms: _112  and  _113
REMARK   44  A    between atoms: _112  and  _115
REMARK   45  A    between atoms: _115  and  _116
REMARK   46  A    between atoms: _122  and  _124
REMARK   47  A    between atoms: _124  and  _125
REMARK   48  A    between atoms: _127  and  _129
REMARK   49  A    between atoms: _129  and  _130
REMARK   50  A    between atoms: _132  and  _134
REMARK   51  A    between atoms: _134  and  _135
REMARK   52  A    between atoms: _138  and  _140
REMARK   53  A    between atoms: _140  and  _141
REMARK   54  A    between atoms: _140  and  _143
REMARK   55  A    between atoms: _143  and  _144
REMARK   56  A    between atoms: _144  and  _145
REMARK   57  A    between atoms: _145  and  _146
REMARK   58  A    between atoms: _146  and  _147
REMARK   59  A    between atoms: _151  and  _153
REMARK   60  A    between atoms: _153  and  _154
REMARK   61  A    between atoms: _153  and  _156
REMARK   62  A    between atoms: _156  and  _157
REMARK   63  A    between atoms: _157  and  _158
REMARK   64  A    between atoms: _160  and  _162
REMARK   65  A    between atoms: _162  and  _163
REMARK   66  A    between atoms: _162  and  _165
REMARK   67  A    between atoms: _165  and  _166
REMARK   68  A    between atoms: _171  and  _172
REMARK   69  A    between atoms: _174  and  _176
REMARK   70  A    between atoms: _176  and  _177
REMARK   71  A    between atoms: _176  and  _179
REMARK   72  A    between atoms: _179  and  _180
REMARK   73  A    between atoms: _183  and  _185
REMARK   74  A    between atoms: _185  and  _186
REMARK   75  A    between atoms: _185  and  _188
REMARK   76  A    between atoms: _188  and  _189
REMARK   77  A    between atoms: _195  and  _197
REMARK   78  A    between atoms: _197  and  _198
REMARK   79  A    between atoms: _197  and  _200
REMARK   80  A    between atoms: _200  and  _201
REMARK   81  A    between atoms: _206  and  _207
REMARK   82  A    between atoms: _209  and  _211
REMARK   83  A    between atoms: _211  and  _212
REMARK   84  A    between atoms: _214  and  _216
REMARK   85  A    between atoms: _216  and  _217
REMARK   86  A    between atoms: _219  and  _221
REMARK   87  A    between atoms: _221  and  _222
REMARK   88  A    between atoms: _221  and  _224
REMARK   89  A    between atoms: _224  and  _225
REMARK   90  A    between atoms: _235  and  _237
REMARK   91  A    between atoms: _237  and  _238
REMARK   92  A    between atoms: _237  and  _240
REMARK   93  A    between atoms: _240  and  _241
REMARK   94  A    between atoms: _246  and  _248
REMARK   95  A    between atoms: _248  and  _249
REMARK   96  A    between atoms: _248  and  _251
REMARK   97  A    between atoms: _251  and  _252
REMARK   98  A    between atoms: _257  and  _258
REMARK   99  A    between atoms: _260  and  _262
REMARK  100  A    between atoms: _262  and  _263
REMARK  101  A    between atoms: _262  and  _265
REMARK  102  A    between atoms: _265  and  _266
REMARK  103  A    between atoms: _271  and  _272
REMARK  104  A    between atoms: _274  and  _276
REMARK  105  A    between atoms: _276  and  _277
REMARK  106  A    between atoms: _276  and  _279
REMARK  107  A    between atoms: _279  and  _280
REMARK  108  A    between atoms: _280  and  _281
REMARK  109  A    between atoms: _281  and  _282
REMARK  110  A    between atoms: _291  and  _293
REMARK  111  A    between atoms: _293  and  _294
REMARK  112  A    between atoms: _293  and  _296
REMARK  113  A    between atoms: _296  and  _297
REMARK  114  A    between atoms: _297  and  _298
REMARK  115  A    between atoms: _298  and  _299
REMARK  116  A    between atoms: _299  and  _300
REMARK  117  A    between atoms: _304  and  _306
REMARK  118  A    between atoms: _306  and  _307
REMARK  119  A    between atoms: _306  and  _309
REMARK  120  A    between atoms: _309  and  _310
REMARK  121  A    between atoms: _310  and  _311
REMARK  122  A    between atoms: _314  and  _316
REMARK  123  A    between atoms: _316  and  _317
REMARK  124  A    between atoms: _316  and  _319
REMARK  125  A    between atoms: _322  and  _324
REMARK  126  A    between atoms: _324  and  _325
REMARK  127  A    between atoms: _324  and  _327
REMARK  128  A    between atoms: _327  and  _328
REMARK  129  A    between atoms: _338  and  _340
REMARK  130  A    between atoms: _340  and  _341
REMARK  131  A    between atoms: _340  and  _343
REMARK  132  A    between atoms: _343  and  _344
REMARK  133  A    between atoms: _344  and  _345
REMARK                            x       y       z     vdW  Elec       q    Type
REMARK                         _______ _______ _______ _____ _____    ______ ____
ROOT
ATOM      1  C   SER A   1      16.812  -7.250  33.048  0.00  0.00    +0.241 C 
ATOM      2  N   VAL A   2      15.523  -7.146  33.462  0.00  0.00    -0.298 N 
ATOM      3  H   VAL A   2      15.078  -7.947  33.954  0.00  0.00    +0.150 HD
ATOM      4  O   SER A   1      17.419  -6.276  32.537  0.00  0.00    -0.274 OA
ENDROOT
BRANCH   1   5
ATOM      5  CA  SER A   1      17.601  -8.540  33.330  0.00  0.00    +0.174 C 
BRANCH   5   6
ATOM      6  N   SER A   1      16.980  -9.423  34.328  0.00  0.00    -0.236 NA
ATOM      7  H   SER A   1      16.634 -10.360  34.039  0.00  0.00    +0.142 HD
ENDBRANCH   5   6
BRANCH   5   8
ATOM      8  CB  SER A   1      17.925  -9.324  32.043  0.00  0.00    +0.163 C 
BRANCH   8   9
ATOM      9  OG  SER A   1      16.675  -9.552  31.330  0.00  0.00    -0.380 OA
ATOM     10  H   SER A   1      16.060 -10.074  31.904  0.00  0.00    +0.211 HD
ENDBRANCH   8   9
ENDBRANCH   5   8
ENDBRANCH   1   5
BRANCH   2  11
ATOM     11  CA  VAL A   2      14.757  -5.937  33.230  0.00  0.00    +0.137 C 
BRANCH  11  12
ATOM     12  CB  VAL A   2      13.258  -6.241  33.054  0.00  0.00    +0.026 C 
ATOM     13  CG2 VAL A   2      12.488  -4.924  32.986  0.00  0.00    +0.002 C 
ATOM     14  CG1 VAL A   2      13.039  -7.005  31.707  0.00  0.00    +0.002 C 
ENDBRANCH  11  12
BRANCH  11  15
ATOM     15  C   VAL A   2      14.945  -4.973  34.425  0.00  0.00    +0.227 C 
ATOM     16  O   VAL A   2      14.485  -3.822  34.387  0.00  0.00    -0.286 OA
ENDBRANCH  11  15
ENDBRANCH   2  11
TORSDOF 7
REMARK  Name = ../refined-set-2016/3arv/3arv_pocket.pdb
REMARK  133 active torsions:
REMARK  status: ('A' for Active; 'I' for Inactive)
REMARK    1  A    between atoms: _1  and  _3
REMARK    2  A    between atoms: _3  and  _4
REMARK    3  A    between atoms: _3  and  _6
REMARK    4  A    between atoms: _6  and  _7
REMARK    5  A    between atoms: _17  and  _19
REMARK    6  A    between atoms: _19  and  _20
REMARK    7  A    between atoms: _19  and  _22
REMARK    8  A    between atoms: _22  and  _23
REMARK    9  A    between atoms: _29  and  _31
REMARK   10  A    between atoms: _31  and  _32
REMARK   11  A    between atoms: _31  and  _34
REMARK   12  A    between atoms: _34  and  _35
REMARK   13  A    between atoms: _37  and  _39
REMARK   14  A    between atoms: _39  and  _40
REMARK   15  A    between atoms: _39  and  _42
REMARK   16  A    between atoms: _45  and  _47
REMARK   17  A    between atoms: _47  and  _48
REMARK   18  A    between atoms: _47  and  _50
REMARK   19  A    between atoms: _50  and  _51
REMARK   20  A    between atoms: _53  and  _55
REMARK   21  A    between atoms: _55  and  _56
REMARK   22  A    between atoms: _55  and  _58
REMARK   23  A    between atoms: _61  and  _63
REMARK   24  A    between atoms: _63  and  _64
REMARK   25  A    between atoms: _66  and  _68
REMARK   26  A    between atoms: _68  and  _69
REMARK   27  A    between atoms: _68  and  _71
REMARK   28  A    between atoms: _71  and  _72
REMARK   29  A    between atoms: _82  and  _84
REMARK   30  A    between atoms: _84  and  _85
REMARK   31  A    between atoms: _84  and  _87
REMARK   32  A    between atoms: _87  and  _88
REMARK   33  A    between atoms: _91  and  _93
REMARK   34  A    between atoms: _93  and  _94
REMARK   35  A    between atoms: _93  and  _96
REMARK   36  A    between atoms: _96  and  _97
REMARK   37  A    between atoms: _100  and  _102
REMARK   38  A    between atoms: _102  and  _103
REMARK   39  A    between atoms: _102  and  _105
REMARK   40  A    between atoms: _105  and  _106
REMARK   41  A    between atoms: _106  and  _107
REMARK   42  A    between atoms: _110  and  _112
REMARK   43  A    between atoms: _112  and  _113
REMARK   44  A    between atoms: _112  and  _115
REMARK   45  A    between atoms: _115  and  _116
REMARK   46  A    between atoms: _122  and  _124
REMARK   47  A    between atoms: _124  and  _125
REMARK   48  A    between atoms: _127  and  _129
REMARK   49  A    between atoms: _129  and  _130
REMARK   50  A    between atoms: _132  and  _134
REMARK   51  A    between atoms: _134  and  _135
REMARK   52  A    between atoms: _138  and  _140
REMARK   53  A    between atoms: _140  and  _141
REMARK   54  A    between atoms: _140  and  _143
REMARK   55  A    between atoms: _143  and  _144
REMARK   56  A    between atoms: _144  and  _145
REMARK   57  A    between atoms: _145  and  _146
REMARK   58  A    between atoms: _146  and  _147
REMARK   59  A    between atoms: _151  and  _153
REMARK   60  A    between atoms: _153  and  _154
REMARK   61  A    between atoms: _153  and  _156
REMARK   62  A    between atoms: _156  and  _157
REMARK   63  A    between atoms: _157  and  _158
REMARK   64  A    between atoms: _160  and  _162
REMARK   65  A    between atoms: _162  and  _163
REMARK   66  A    between atoms: _162  and  _165
REMARK   67  A    between atoms: _165  and  _166
REMARK   68  A    between atoms: _171  and  _172
REMARK   69  A    between atoms: _174  and  _176
REMARK   70  A    between atoms: _176  and  _177
REMARK   71  A    between atoms: _176  and  _179
REMARK   72  A    between atoms: _179  and  _180
REMARK   73  A    between atoms: _183  and  _185
REMARK   74  A    between atoms: _185  and  _186
REMARK   75  A    between atoms: _185  and  _188
REMARK   76  A    between atoms: _188  and  _189
REMARK   77  A    between atoms: _195  and  _197
REMARK   78  A    between atoms: _197  and  _198
REMARK   79  A    between atoms: _197  and  _200
REMARK   80  A    between atoms: _200  and  _201
REMARK   81  A    between atoms: _206  and  _207
REMARK   82  A    between atoms: _209  and  _211
REMARK   83  A    between atoms: _211  and  _212
REMARK   84  A    between atoms: _214  and  _216
REMARK   85  A    between atoms: _216  and  _217
REMARK   86  A    between atoms: _219  and  _221
REMARK   87  A    between atoms: _221  and  _222
REMARK   88  A    between atoms: _221  and  _224
REMARK   89  A    between atoms: _224  and  _225
REMARK   90  A    between atoms: _235  and  _237
REMARK   91  A    between atoms: _237  and  _238
REMARK   92  A    between atoms: _237  and  _240
REMARK   93  A    between atoms: _240  and  _241
REMARK   94  A    between atoms: _246  and  _248
REMARK   95  A    between atoms: _248  and  _249
REMARK   96  A    between atoms: _248  and  _251
REMARK   97  A    between atoms: _251  and  _252
REMARK   98  A    between atoms: _257  and  _258
REMARK   99  A    between atoms: _260  and  _262
REMARK  100  A    between atoms: _262  and  _263
REMARK  101  A    between atoms: _262  and  _265
REMARK  102  A    between atoms: _265  and  _266
REMARK  103  A    between atoms: _271  and  _272
REMARK  104  A    between atoms: _274  and  _276
REMARK  105  A    between atoms: _276  and  _277
REMARK  106  A    between atoms: _276  and  _279
REMARK  107  A    between atoms: _279  and  _280
REMARK  108  A    between atoms: _280  and  _281
REMARK  109  A    between atoms: _281  and  _282
REMARK  110  A    between atoms: _291  and  _293
REMARK  111  A    between atoms: _293  and  _294
REMARK  112  A    between atoms: _293  and  _296
REMARK  113  A    between atoms: _296  and  _297
REMARK  114  A    between atoms: _297  and  _298
REMARK  115  A    between atoms: _298  and  _299
REMARK  116  A    between atoms: _299  and  _300
REMARK  117  A    between atoms: _304  and  _306
REMARK  118  A    between atoms: _306  and  _307
REMARK  119  A    between atoms: _306  and  _309
REMARK  120  A    between atoms: _309  and  _310
REMARK  121  A    between atoms: _310  and  _311
REMARK  122  A    between atoms: _314  and  _316
REMARK  123  A    between atoms: _316  and  _317
REMARK  124  A    between atoms: _316  and  _319
REMARK  125  A    between atoms: _322  and  _324
REMARK  126  A    between atoms: _324  and  _325
REMARK  127  A    between atoms: _324  and  _327
REMARK  128  A    between atoms: _327  and  _328
REMARK  129  A    between atoms: _338  and  _340
REMARK  130  A    between atoms: _340  and  _341
REMARK  131  A    between atoms: _340  and  _343
REMARK  132  A    between atoms: _343  and  _344
REMARK  133  A    between atoms: _344  and  _345
REMARK                            x       y       z     vdW  Elec       q    Type
REMARK                         _______ _______ _______ _____ _____    ______ ____
ROOT
ATOM      1  C   TRP A   2      12.382 -12.989  27.204  0.00  0.00    +0.241 C 
ATOM      2  N   THR A   3      11.798 -12.229  28.128  0.00  0.00    -0.295 N 
ATOM      3  H   THR A   3      11.030 -11.583  27.855  0.00  0.00    +0.150 HD
ATOM      4  O   TRP A   2      13.252 -13.770  27.469  0.00  0.00    -0.273 OA
ENDROOT
BRANCH   1   5
ATOM      5  CA  TRP A   2      12.021 -12.746  25.750  0.00  0.00    +0.153 C 
BRANCH   5   8
ATOM      6  C   GLY A   1       9.779 -13.656  25.851  0.00  0.00    +0.240 C 
ATOM      7  O   GLY A   1      10.192 -14.612  26.530  0.00  0.00    -0.274 OA
ATOM      8  N   TRP A   2      10.567 -12.656  25.515  0.00  0.00    -0.297 N 
ATOM      9  H   TRP A   2      10.164 -11.800  25.083  0.00  0.00    +0.150 HD
BRANCH   6  10
ATOM     10  CA  GLY A   1       8.334 -13.532  25.516  0.00  0.00    +0.169 C 
BRANCH  10  11
ATOM     11  N   GLY A   1       7.507 -14.659  25.992  0.00  0.00    -0.236 NA
ATOM     12  H   GLY A   1       7.382 -15.503  25.398  0.00  0.00    +0.142 HD
ENDBRANCH  10  11
ENDBRANCH   6  10
ENDBRANCH   5   8
BRANCH   5  13
ATOM     13  CB  TRP A   2      12.678 -11.392  25.310  0.00  0.00    +0.057 C 
BRANCH  13  14
ATOM     14  CG  TRP A   2      14.157 -11.351  25.472  0.00  0.00    -0.002 A 
ATOM     15  CD1 TRP A   2      14.840 -10.739  26.516  0.00  0.00    +0.068 A 
ATOM     16  NE1 TRP A   2      16.201 -10.922  26.338  0.00  0.00    -0.352 N 
ATOM     17  HE1 TRP A   2      16.951 -10.579  26.972  0.00  0.00    +0.166 HD
ATOM     18  CE2 TRP A   2      16.389 -11.632  25.185  0.00  0.00    +0.056 A 
ATOM     19  CZ2 TRP A   2      17.588 -12.059  24.602  0.00  0.00    +0.017 A 
ATOM     20  CH2 TRP A   2      17.501 -12.717  23.432  0.00  0.00    +0.001 A 
ATOM     21  CZ3 TRP A   2      16.263 -12.996  22.781  0.00  0.00    +0.000 A 
ATOM     22  CE3 TRP A   2      15.047 -12.640  23.410  0.00  0.00    +0.001 A 
ATOM     23  CD2 TRP A   2      15.115 -11.889  24.595  0.00  0.00    +0.013 A 
ENDBRANCH  13  14
ENDBRANCH   5  13
ENDBRANCH   1   5
BRANCH   2  24
ATOM     24  CA  THR A   3      12.228 -12.296  29.523  0.00  0.00    +0.176 C 
BRANCH  24  25
ATOM     25  C   THR A   3      11.557 -13.413  30.338  0.00  0.00    +0.243 C 
ATOM     26  O   THR A   3      12.033 -13.793  31.399  0.00  0.00    -0.273 OA
ATOM     27  N   LEU A   4      10.470 -13.931  29.815  0.00  0.00    -0.298 N 
ATOM     28  H   LEU A   4      10.230 -13.706  28.828  0.00  0.00    +0.150 HD
BRANCH  27  29
ATOM     29  CA  LEU A   4       9.550 -14.850  30.606  0.00  0.00    +0.137 C 
BRANCH  29  30
ATOM     30  C   LEU A   4       9.534 -16.274  30.016  0.00  0.00    +0.227 C 
ATOM     31  O   LEU A   4       8.618 -17.040  30.313  0.00  0.00    -0.286 OA
ENDBRANCH  29  30
BRANCH  29  32
ATOM     32  CB  LEU A   4       8.146 -14.265  30.815  0.00  0.00    +0.028 C 
BRANCH  32  33
ATOM     33  CG  LEU A   4       8.109 -13.020  31.672  0.00  0.00    +0.002 C 
ATOM     34  CD2 LEU A   4       8.343 -13.501  33.175  0.00  0.00    +0.000 C 
ATOM     35  CD1 LEU A   4       6.672 -12.427  31.515  0.00  0.00    +0.000 C 
ENDBRANCH  32  33
ENDBRANCH  29  32
ENDBRANCH  27  29
ENDBRANCH  24  25
BRANCH  24  36
ATOM     36  CB  THR A   3      11.957 -10.911  30.244  0.00  0.00    +0.137 C 
ATOM     37  CG2 THR A   3      12.531  -9.793  29.331  0.00  0.00    +0.034 C 
BRANCH  36  38
ATOM     38  OG1 THR A   3      10.634 -10.653  30.282  0.00  0.00    -0.382 OA
ATOM     39  HG1 THR A   3      10.280 -10.611  29.358  0.00  0.00    +0.210 HD
ENDBRANCH  36  38
ENDBRANCH  24  36
ENDBRANCH   2  24
TORSDOF 14
REMARK  Name = ../refined-set-2016/3arv/3arv_pocket.pdb
REMARK  133 active torsions:
REMARK  status: ('A' for Active; 'I' for Inactive)
REMARK    1  A    between atoms: _1  and  _3
REMARK    2  A    between atoms: _3  and  _4
REMARK    3  A    between atoms: _3  and  _6
REMARK    4  A    between atoms: _6  and  _7
REMARK    5  A    between atoms: _17  and  _19
REMARK    6  A    between atoms: _19  and  _20
REMARK    7  A    between atoms: _19  and  _22
REMARK    8  A    between atoms: _22  and  _23
REMARK    9  A    between atoms: _29  and  _31
REMARK   10  A    between atoms: _31  and  _32
REMARK   11  A    between atoms: _31  and  _34
REMARK   12  A    between atoms: _34  and  _35
REMARK   13  A    between atoms: _37  and  _39
REMARK   14  A    between atoms: _39  and  _40
REMARK   15  A    between atoms: _39  and  _42
REMARK   16  A    between atoms: _45  and  _47
REMARK   17  A    between atoms: _47  and  _48
REMARK   18  A    between atoms: _47  and  _50
REMARK   19  A    between atoms: _50  and  _51
REMARK   20  A    between atoms: _53  and  _55
REMARK   21  A    between atoms: _55  and  _56
REMARK   22  A    between atoms: _55  and  _58
REMARK   23  A    between atoms: _61  and  _63
REMARK   24  A    between atoms: _63  and  _64
REMARK   25  A    between atoms: _66  and  _68
REMARK   26  A    between atoms: _68  and  _69
REMARK   27  A    between atoms: _68  and  _71
REMARK   28  A    between atoms: _71  and  _72
REMARK   29  A    between atoms: _82  and  _84
REMARK   30  A    between atoms: _84  and  _85
REMARK   31  A    between atoms: _84  and  _87
REMARK   32  A    between atoms: _87  and  _88
REMARK   33  A    between atoms: _91  and  _93
REMARK   34  A    between atoms: _93  and  _94
REMARK   35  A    between atoms: _93  and  _96
REMARK   36  A    between atoms: _96  and  _97
REMARK   37  A    between atoms: _100  and  _102
REMARK   38  A    between atoms: _102  and  _103
REMARK   39  A    between atoms: _102  and  _105
REMARK   40  A    between atoms: _105  and  _106
REMARK   41  A    between atoms: _106  and  _107
REMARK   42  A    between atoms: _110  and  _112
REMARK   43  A    between atoms: _112  and  _113
REMARK   44  A    between atoms: _112  and  _115
REMARK   45  A    between atoms: _115  and  _116
REMARK   46  A    between atoms: _122  and  _124
REMARK   47  A    between atoms: _124  and  _125
REMARK   48  A    between atoms: _127  and  _129
REMARK   49  A    between atoms: _129  and  _130
REMARK   50  A    between atoms: _132  and  _134
REMARK   51  A    between atoms: _134  and  _135
REMARK   52  A    between atoms: _138  and  _140
REMARK   53  A    between atoms: _140  and  _141
REMARK   54  A    between atoms: _140  and  _143
REMARK   55  A    between atoms: _143  and  _144
REMARK   56  A    between atoms: _144  and  _145
REMARK   57  A    between atoms: _145  and  _146
REMARK   58  A    between atoms: _146  and  _147
REMARK   59  A    between atoms: _151  and  _153
REMARK   60  A    between atoms: _153  and  _154
REMARK   61  A    between atoms: _153  and  _156
REMARK   62  A    between atoms: _156  and  _157
REMARK   63  A    between atoms: _157  and  _158
REMARK   64  A    between atoms: _160  and  _162
REMARK   65  A    between atoms: _162  and  _163
REMARK   66  A    between atoms: _162  and  _165
REMARK   67  A    between atoms: _165  and  _166
REMARK   68  A    between atoms: _171  and  _172
REMARK   69  A    between atoms: _174  and  _176
REMARK   70  A    between atoms: _176  and  _177
REMARK   71  A    between atoms: _176  and  _179
REMARK   72  A    between atoms: _179  and  _180
REMARK   73  A    between atoms: _183  and  _185
REMARK   74  A    between atoms: _185  and  _186
REMARK   75  A    between atoms: _185  and  _188
REMARK   76  A    between atoms: _188  and  _189
REMARK   77  A    between atoms: _195  and  _197
REMARK   78  A    between atoms: _197  and  _198
REMARK   79  A    between atoms: _197  and  _200
REMARK   80  A    between atoms: _200  and  _201
REMARK   81  A    between atoms: _206  and  _207
REMARK   82  A    between atoms: _209  and  _211
REMARK   83  A    between atoms: _211  and  _212
REMARK   84  A    between atoms: _214  and  _216
REMARK   85  A    between atoms: _216  and  _217
REMARK   86  A    between atoms: _219  and  _221
REMARK   87  A    between atoms: _221  and  _222
REMARK   88  A    between atoms: _221  and  _224
REMARK   89  A    between atoms: _224  and  _225
REMARK   90  A    between atoms: _235  and  _237
REMARK   91  A    between atoms: _237  and  _238
REMARK   92  A    between atoms: _237  and  _240
REMARK   93  A    between atoms: _240  and  _241
REMARK   94  A    between atoms: _246  and  _248
REMARK   95  A    between atoms: _248  and  _249
REMARK   96  A    between atoms: _248  and  _251
REMARK   97  A    between atoms: _251  and  _252
REMARK   98  A    between atoms: _257  and  _258
REMARK   99  A    between atoms: _260  and  _262
REMARK  100  A    between atoms: _262  and  _263
REMARK  101  A    between atoms: _262  and  _265
REMARK  102  A    between atoms: _265  and  _266
REMARK  103  A    between atoms: _271  and  _272
REMARK  104  A    between atoms: _274  and  _276
REMARK  105  A    between atoms: _276  and  _277
REMARK  106  A    between atoms: _276  and  _279
REMARK  107  A    between atoms: _279  and  _280
REMARK  108  A    between atoms: _280  and  _281
REMARK  109  A    between atoms: _281  and  _282
REMARK  110  A    between atoms: _291  and  _293
REMARK  111  A    between atoms: _293  and  _294
REMARK  112  A    between atoms: _293  and  _296
REMARK  113  A    between atoms: _296  and  _297
REMARK  114  A    between atoms: _297  and  _298
REMARK  115  A    between atoms: _298  and  _299
REMARK  116  A    between atoms: _299  and  _300
REMARK  117  A    between atoms: _304  and  _306
REMARK  118  A    between atoms: _306  and  _307
REMARK  119  A    between atoms: _306  and  _309
REMARK  120  A    between atoms: _309  and  _310
REMARK  121  A    between atoms: _310  and  _311
REMARK  122  A    between atoms: _314  and  _316
REMARK  123  A    between atoms: _316  and  _317
REMARK  124  A    between atoms: _316  and  _319
REMARK  125  A    between atoms: _322  and  _324
REMARK  126  A    between atoms: _324  and  _325
REMARK  127  A    between atoms: _324  and  _327
REMARK  128  A    between atoms: _327  and  _328
REMARK  129  A    between atoms: _338  and  _340
REMARK  130  A    between atoms: _340  and  _341
REMARK  131  A    between atoms: _340  and  _343
REMARK  132  A    between atoms: _343  and  _344
REMARK  133  A    between atoms: _344  and  _345
REMARK                            x       y       z     vdW  Elec       q    Type
REMARK                         _______ _______ _______ _____ _____    ______ ____
ROOT
ATOM      1  C   GLU A   1      13.180 -18.230  23.565  0.00  0.00    +0.238 C 
ATOM      2  O   GLU A   1      13.661 -17.723  24.643  0.00  0.00    -0.274 OA
ATOM      3  N   PHE A   2      13.678 -19.382  23.051  0.00  0.00    -0.298 N 
ATOM      4  H   PHE A   2      14.444 -19.833  23.591  0.00  0.00    +0.150 HD
ENDROOT
BRANCH   1   5
ATOM      5  CA  GLU A   1      11.926 -17.603  22.909  0.00  0.00    +0.145 C 
BRANCH   5   6
ATOM      6  N   GLU A   1      10.725 -18.137  23.582  0.00  0.00    -0.238 NA
ATOM      7  H   GLU A   1      10.551 -17.924  24.585  0.00  0.00    +0.142 HD
ENDBRANCH   5   6
BRANCH   5   8
ATOM      8  CB  GLU A   1      11.936 -16.055  22.997  0.00  0.00    +0.038 C 
BRANCH   8   9
ATOM      9  CG  GLU A   1      10.707 -15.493  22.402  0.00  0.00    +0.116 C 
BRANCH   9  10
ATOM     10  CD  GLU A   1      10.706 -13.990  22.272  0.00  0.00    +0.365 C 
ATOM     11  OE2 GLU A   1      11.731 -13.351  22.371  0.00  0.00    -0.246 OA
ATOM     12  OE1 GLU A   1       9.589 -13.480  22.133  0.00  0.00    -0.246 OA
ENDBRANCH   9  10
ENDBRANCH   8   9
ENDBRANCH   5   8
ENDBRANCH   1   5
BRANCH   3  13
ATOM     13  CA  PHE A   2      13.265 -20.058  21.834  0.00  0.00    +0.141 C 
BRANCH  13  14
ATOM     14  C   PHE A   2      13.536 -21.550  22.032  0.00  0.00    +0.227 C 
ATOM     15  O   PHE A   2      14.509 -21.892  22.731  0.00  0.00    -0.286 OA
ENDBRANCH  13  14
BRANCH  13  16
ATOM     16  CB  PHE A   2      14.133 -19.598  20.591  0.00  0.00    +0.054 C 
BRANCH  16  17
ATOM     17  CG  PHE A   2      14.124 -18.100  20.318  0.00  0.00    -0.020 A 
ATOM     18  CD2 PHE A   2      15.093 -17.292  20.870  0.00  0.00    -0.004 A 
ATOM     19  CE2 PHE A   2      15.048 -15.885  20.613  0.00  0.00    -0.000 A 
ATOM     20  CZ  PHE A   2      14.042 -15.387  19.783  0.00  0.00    -0.000 A 
ATOM     21  CE1 PHE A   2      13.042 -16.228  19.248  0.00  0.00    -0.000 A 
ATOM     22  CD1 PHE A   2      13.138 -17.591  19.510  0.00  0.00    -0.004 A 
ENDBRANCH  16  17
ENDBRANCH  13  16
ENDBRANCH   3  13
TORSDOF 9
REMARK  Name = ../refined-set-2016/3arv/3arv_pocket.pdb
REMARK  133 active torsions:
REMARK  status: ('A' for Active; 'I' for Inactive)
REMARK    1  A    between atoms: _1  and  _3
REMARK    2  A    between atoms: _3  and  _4
REMARK    3  A    between atoms: _3  and  _6
REMARK    4  A    between atoms: _6  and  _7
REMARK    5  A    between atoms: _17  and  _19
REMARK    6  A    between atoms: _19  and  _20
REMARK    7  A    between atoms: _19  and  _22
REMARK    8  A    between atoms: _22  and  _23
REMARK    9  A    between atoms: _29  and  _31
REMARK   10  A    between atoms: _31  and  _32
REMARK   11  A    between atoms: _31  and  _34
REMARK   12  A    between atoms: _34  and  _35
REMARK   13  A    between atoms: _37  and  _39
REMARK   14  A    between atoms: _39  and  _40
REMARK   15  A    between atoms: _39  and  _42
REMARK   16  A    between atoms: _45  and  _47
REMARK   17  A    between atoms: _47  and  _48
REMARK   18  A    between atoms: _47  and  _50
REMARK   19  A    between atoms: _50  and  _51
REMARK   20  A    between atoms: _53  and  _55
REMARK   21  A    between atoms: _55  and  _56
REMARK   22  A    between atoms: _55  and  _58
REMARK   23  A    between atoms: _61  and  _63
REMARK   24  A    between atoms: _63  and  _64
REMARK   25  A    between atoms: _66  and  _68
REMARK   26  A    between atoms: _68  and  _69
REMARK   27  A    between atoms: _68  and  _71
REMARK   28  A    between atoms: _71  and  _72
REMARK   29  A    between atoms: _82  and  _84
REMARK   30  A    between atoms: _84  and  _85
REMARK   31  A    between atoms: _84  and  _87
REMARK   32  A    between atoms: _87  and  _88
REMARK   33  A    between atoms: _91  and  _93
REMARK   34  A    between atoms: _93  and  _94
REMARK   35  A    between atoms: _93  and  _96
REMARK   36  A    between atoms: _96  and  _97
REMARK   37  A    between atoms: _100  and  _102
REMARK   38  A    between atoms: _102  and  _103
REMARK   39  A    between atoms: _102  and  _105
REMARK   40  A    between atoms: _105  and  _106
REMARK   41  A    between atoms: _106  and  _107
REMARK   42  A    between atoms: _110  and  _112
REMARK   43  A    between atoms: _112  and  _113
REMARK   44  A    between atoms: _112  and  _115
REMARK   45  A    between atoms: _115  and  _116
REMARK   46  A    between atoms: _122  and  _124
REMARK   47  A    between atoms: _124  and  _125
REMARK   48  A    between atoms: _127  and  _129
REMARK   49  A    between atoms: _129  and  _130
REMARK   50  A    between atoms: _132  and  _134
REMARK   51  A    between atoms: _134  and  _135
REMARK   52  A    between atoms: _138  and  _140
REMARK   53  A    between atoms: _140  and  _141
REMARK   54  A    between atoms: _140  and  _143
REMARK   55  A    between atoms: _143  and  _144
REMARK   56  A    between atoms: _144  and  _145
REMARK   57  A    between atoms: _145  and  _146
REMARK   58  A    between atoms: _146  and  _147
REMARK   59  A    between atoms: _151  and  _153
REMARK   60  A    between atoms: _153  and  _154
REMARK   61  A    between atoms: _153  and  _156
REMARK   62  A    between atoms: _156  and  _157
REMARK   63  A    between atoms: _157  and  _158
REMARK   64  A    between atoms: _160  and  _162
REMARK   65  A    between atoms: _162  and  _163
REMARK   66  A    between atoms: _162  and  _165
REMARK   67  A    between atoms: _165  and  _166
REMARK   68  A    between atoms: _171  and  _172
REMARK   69  A    between atoms: _174  and  _176
REMARK   70  A    between atoms: _176  and  _177
REMARK   71  A    between atoms: _176  and  _179
REMARK   72  A    between atoms: _179  and  _180
REMARK   73  A    between atoms: _183  and  _185
REMARK   74  A    between atoms: _185  and  _186
REMARK   75  A    between atoms: _185  and  _188
REMARK   76  A    between atoms: _188  and  _189
REMARK   77  A    between atoms: _195  and  _197
REMARK   78  A    between atoms: _197  and  _198
REMARK   79  A    between atoms: _197  and  _200
REMARK   80  A    between atoms: _200  and  _201
REMARK   81  A    between atoms: _206  and  _207
REMARK   82  A    between atoms: _209  and  _211
REMARK   83  A    between atoms: _211  and  _212
REMARK   84  A    between atoms: _214  and  _216
REMARK   85  A    between atoms: _216  and  _217
REMARK   86  A    between atoms: _219  and  _221
REMARK   87  A    between atoms: _221  and  _222
REMARK   88  A    between atoms: _221  and  _224
REMARK   89  A    between atoms: _224  and  _225
REMARK   90  A    between atoms: _235  and  _237
REMARK   91  A    between atoms: _237  and  _238
REMARK   92  A    between atoms: _237  and  _240
REMARK   93  A    between atoms: _240  and  _241
REMARK   94  A    between atoms: _246  and  _248
REMARK   95  A    between atoms: _248  and  _249
REMARK   96  A    between atoms: _248  and  _251
REMARK   97  A    between atoms: _251  and  _252
REMARK   98  A    between atoms: _257  and  _258
REMARK   99  A    between atoms: _260  and  _262
REMARK  100  A    between atoms: _262  and  _263
REMARK  101  A    between atoms: _262  and  _265
REMARK  102  A    between atoms: _265  and  _266
REMARK  103  A    between atoms: _271  and  _272
REMARK  104  A    between atoms: _274  and  _276
REMARK  105  A    between atoms: _276  and  _277
REMARK  106  A    between atoms: _276  and  _279
REMARK  107  A    between atoms: _279  and  _280
REMARK  108  A    between atoms: _280  and  _281
REMARK  109  A    between atoms: _281  and  _282
REMARK  110  A    between atoms: _291  and  _293
REMARK  111  A    between atoms: _293  and  _294
REMARK  112  A    between atoms: _293  and  _296
REMARK  113  A    between atoms: _296  and  _297
REMARK  114  A    between atoms: _297  and  _298
REMARK  115  A    between atoms: _298  and  _299
REMARK  116  A    between atoms: _299  and  _300
REMARK  117  A    between atoms: _304  and  _306
REMARK  118  A    between atoms: _306  and  _307
REMARK  119  A    between atoms: _306  and  _309
REMARK  120  A    between atoms: _309  and  _310
REMARK  121  A    between atoms: _310  and  _311
REMARK  122  A    between atoms: _314  and  _316
REMARK  123  A    between atoms: _316  and  _317
REMARK  124  A    between atoms: _316  and  _319
REMARK  125  A    between atoms: _322  and  _324
REMARK  126  A    between atoms: _324  and  _325
REMARK  127  A    between atoms: _324  and  _327
REMARK  128  A    between atoms: _327  and  _328
REMARK  129  A    between atoms: _338  and  _340
REMARK  130  A    between atoms: _340  and  _341
REMARK  131  A    between atoms: _340  and  _343
REMARK  132  A    between atoms: _343  and  _344
REMARK  133  A    between atoms: _344  and  _345
REMARK                            x       y       z     vdW  Elec       q    Type
REMARK                         _______ _______ _______ _____ _____    ______ ____
ROOT
ATOM      1  CA  GLY A   2      17.179 -16.405  24.018  0.00  0.00    +0.176 C 
ENDROOT
BRANCH   1   3
ATOM      2  C   GLY A   1      18.645 -17.324  22.352  0.00  0.00    +0.240 C 
ATOM      3  N   GLY A   2      17.954 -17.508  23.441  0.00  0.00    -0.295 N 
ATOM      4  H   GLY A   2      17.952 -18.440  23.902  0.00  0.00    +0.150 HD
ATOM      5  O   GLY A   1      18.599 -16.231  21.691  0.00  0.00    -0.274 OA
BRANCH   2   6
ATOM      6  CA  GLY A   1      19.532 -18.445  21.879  0.00  0.00    +0.169 C 
BRANCH   6   7
ATOM      7  N   GLY A   1      19.238 -19.695  22.567  0.00  0.00    -0.236 NA
ATOM      8  H   GLY A   1      19.789 -19.976  23.403  0.00  0.00    +0.142 HD
ENDBRANCH   6   7
ENDBRANCH   2   6
ENDBRANCH   1   3
BRANCH   1   9
ATOM      9  C   GLY A   2      17.937 -15.729  25.169  0.00  0.00    +0.243 C 
ATOM     10  N   ALA A   3      17.170 -15.246  26.111  0.00  0.00    -0.298 N 
ATOM     11  H   ALA A   3      16.139 -15.365  26.045  0.00  0.00    +0.150 HD
ATOM     12  O   GLY A   2      19.179 -15.691  25.204  0.00  0.00    -0.273 OA
BRANCH  10  13
ATOM     13  CA  ALA A   3      17.758 -14.522  27.286  0.00  0.00    +0.137 C 
ATOM     14  CB  ALA A   3      16.617 -13.907  28.092  0.00  0.00    +0.030 C 
BRANCH  13  15
ATOM     15  C   ALA A   3      18.586 -15.452  28.138  0.00  0.00    +0.227 C 
ATOM     16  O   ALA A   3      19.567 -14.953  28.700  0.00  0.00    -0.286 OA
ENDBRANCH  13  15
ENDBRANCH  10  13
ENDBRANCH   1   9
TORSDOF 6
REMARK  Name = ../refined-set-2016/3arv/3arv_pocket.pdb
REMARK  133 active torsions:
REMARK  status: ('A' for Active; 'I' for Inactive)
REMARK    1  A    between atoms: _1  and  _3
REMARK    2  A    between atoms: _3  and  _4
REMARK    3  A    between atoms: _3  and  _6
REMARK    4  A    between atoms: _6  and  _7
REMARK    5  A    between atoms: _17  and  _19
REMARK    6  A    between atoms: _19  and  _20
REMARK    7  A    between atoms: _19  and  _22
REMARK    8  A    between atoms: _22  and  _23
REMARK    9  A    between atoms: _29  and  _31
REMARK   10  A    between atoms: _31  and  _32
REMARK   11  A    between atoms: _31  and  _34
REMARK   12  A    between atoms: _34  and  _35
REMARK   13  A    between atoms: _37  and  _39
REMARK   14  A    between atoms: _39  and  _40
REMARK   15  A    between atoms: _39  and  _42
REMARK   16  A    between atoms: _45  and  _47
REMARK   17  A    between atoms: _47  and  _48
REMARK   18  A    between atoms: _47  and  _50
REMARK   19  A    between atoms: _50  and  _51
REMARK   20  A    between atoms: _53  and  _55
REMARK   21  A    between atoms: _55  and  _56
REMARK   22  A    between atoms: _55  and  _58
REMARK   23  A    between atoms: _61  and  _63
REMARK   24  A    between atoms: _63  and  _64
REMARK   25  A    between atoms: _66  and  _68
REMARK   26  A    between atoms: _68  and  _69
REMARK   27  A    between atoms: _68  and  _71
REMARK   28  A    between atoms: _71  and  _72
REMARK   29  A    between atoms: _82  and  _84
REMARK   30  A    between atoms: _84  and  _85
REMARK   31  A    between atoms: _84  and  _87
REMARK   32  A    between atoms: _87  and  _88
REMARK   33  A    between atoms: _91  and  _93
REMARK   34  A    between atoms: _93  and  _94
REMARK   35  A    between atoms: _93  and  _96
REMARK   36  A    between atoms: _96  and  _97
REMARK   37  A    between atoms: _100  and  _102
REMARK   38  A    between atoms: _102  and  _103
REMARK   39  A    between atoms: _102  and  _105
REMARK   40  A    between atoms: _105  and  _106
REMARK   41  A    between atoms: _106  and  _107
REMARK   42  A    between atoms: _110  and  _112
REMARK   43  A    between atoms: _112  and  _113
REMARK   44  A    between atoms: _112  and  _115
REMARK   45  A    between atoms: _115  and  _116
REMARK   46  A    between atoms: _122  and  _124
REMARK   47  A    between atoms: _124  and  _125
REMARK   48  A    between atoms: _127  and  _129
REMARK   49  A    between atoms: _129  and  _130
REMARK   50  A    between atoms: _132  and  _134
REMARK   51  A    between atoms: _134  and  _135
REMARK   52  A    between atoms: _138  and  _140
REMARK   53  A    between atoms: _140  and  _141
REMARK   54  A    between atoms: _140  and  _143
REMARK   55  A    between atoms: _143  and  _144
REMARK   56  A    between atoms: _144  and  _145
REMARK   57  A    between atoms: _145  and  _146
REMARK   58  A    between atoms: _146  and  _147
REMARK   59  A    between atoms: _151  and  _153
REMARK   60  A    between atoms: _153  and  _154
REMARK   61  A    between atoms: _153  and  _156
REMARK   62  A    between atoms: _156  and  _157
REMARK   63  A    between atoms: _157  and  _158
REMARK   64  A    between atoms: _160  and  _162
REMARK   65  A    between atoms: _162  and  _163
REMARK   66  A    between atoms: _162  and  _165
REMARK   67  A    between atoms: _165  and  _166
REMARK   68  A    between atoms: _171  and  _172
REMARK   69  A    between atoms: _174  and  _176
REMARK   70  A    between atoms: _176  and  _177
REMARK   71  A    between atoms: _176  and  _179
REMARK   72  A    between atoms: _179  and  _180
REMARK   73  A    between atoms: _183  and  _185
REMARK   74  A    between atoms: _185  and  _186
REMARK   75  A    between atoms: _185  and  _188
REMARK   76  A    between atoms: _188  and  _189
REMARK   77  A    between atoms: _195  and  _197
REMARK   78  A    between atoms: _197  and  _198
REMARK   79  A    between atoms: _197  and  _200
REMARK   80  A    between atoms: _200  and  _201
REMARK   81  A    between atoms: _206  and  _207
REMARK   82  A    between atoms: _209  and  _211
REMARK   83  A    between atoms: _211  and  _212
REMARK   84  A    between atoms: _214  and  _216
REMARK   85  A    between atoms: _216  and  _217
REMARK   86  A    between atoms: _219  and  _221
REMARK   87  A    between atoms: _221  and  _222
REMARK   88  A    between atoms: _221  and  _224
REMARK   89  A    between atoms: _224  and  _225
REMARK   90  A    between atoms: _235  and  _237
REMARK   91  A    between atoms: _237  and  _238
REMARK   92  A    between atoms: _237  and  _240
REMARK   93  A    between atoms: _240  and  _241
REMARK   94  A    between atoms: _246  and  _248
REMARK   95  A    between atoms: _248  and  _249
REMARK   96  A    between atoms: _248  and  _251
REMARK   97  A    between atoms: _251  and  _252
REMARK   98  A    between atoms: _257  and  _258
REMARK   99  A    between atoms: _260  and  _262
REMARK  100  A    between atoms: _262  and  _263
REMARK  101  A    between atoms: _262  and  _265
REMARK  102  A    between atoms: _265  and  _266
REMARK  103  A    between atoms: _271  and  _272
REMARK  104  A    between atoms: _274  and  _276
REMARK  105  A    between atoms: _276  and  _277
REMARK  106  A    between atoms: _276  and  _279
REMARK  107  A    between atoms: _279  and  _280
REMARK  108  A    between atoms: _280  and  _281
REMARK  109  A    between atoms: _281  and  _282
REMARK  110  A    between atoms: _291  and  _293
REMARK  111  A    between atoms: _293  and  _294
REMARK  112  A    between atoms: _293  and  _296
REMARK  113  A    between atoms: _296  and  _297
REMARK  114  A    between atoms: _297  and  _298
REMARK  115  A    between atoms: _298  and  _299
REMARK  116  A    between atoms: _299  and  _300
REMARK  117  A    between atoms: _304  and  _306
REMARK  118  A    between atoms: _306  and  _307
REMARK  119  A    between atoms: _306  and  _309
REMARK  120  A    between atoms: _309  and  _310
REMARK  121  A    between atoms: _310  and  _311
REMARK  122  A    between atoms: _314  and  _316
REMARK  123  A    between atoms: _316  and  _317
REMARK  124  A    between atoms: _316  and  _319
REMARK  125  A    between atoms: _322  and  _324
REMARK  126  A    between atoms: _324  and  _325
REMARK  127  A    between atoms: _324  and  _327
REMARK  128  A    between atoms: _327  and  _328
REMARK  129  A    between atoms: _338  and  _340
REMARK  130  A    between atoms: _340  and  _341
REMARK  131  A    between atoms: _340  and  _343
REMARK  132  A    between atoms: _343  and  _344
REMARK  133  A    between atoms: _344  and  _345
REMARK                            x       y       z     vdW  Elec       q    Type
REMARK                         _______ _______ _______ _____ _____    ______ ____
ROOT
ATOM      1  CG  LYS A   1      15.922 -18.489  16.236  0.00  0.00    -0.000 C 
ENDROOT
BRANCH   1   2
ATOM      2  CB  LYS A   1      15.046 -19.535  15.566  0.00  0.00    +0.025 C 
BRANCH   2   3
ATOM      3  CA  LYS A   1      15.751 -20.882  15.291  0.00  0.00    +0.133 C 
BRANCH   3   4
ATOM      4  N   LYS A   1      16.868 -20.695  14.401  0.00  0.00    -0.239 NA
ATOM      5  H   LYS A   1      16.858 -19.921  13.706  0.00  0.00    +0.142 HD
ENDBRANCH   3   4
BRANCH   3   6
ATOM      6  C   LYS A   1      14.729 -21.826  14.616  0.00  0.00    +0.224 C 
ATOM      7  O   LYS A   1      14.212 -22.796  15.208  0.00  0.00    -0.287 OA
ENDBRANCH   3   6
ENDBRANCH   2   3
ENDBRANCH   1   2
BRANCH   1   8
ATOM      8  CD  LYS A   1      16.477 -19.069  17.471  0.00  0.00    -0.024 C 
BRANCH   8   9
ATOM      9  CE  LYS A   1      17.259 -17.983  18.391  0.00  0.00    -0.086 C 
BRANCH   9  10
ATOM     10  NZ  LYS A   1      18.508 -17.513  17.741  0.00  0.00    +0.380 N 
ATOM     11  HZ1 LYS A   1      18.979 -16.821  18.358  0.00  0.00    -0.089 HD
ATOM     12  HZ2 LYS A   1      19.140 -18.323  17.580  0.00  0.00    -0.089 HD
ATOM     13  HZ3 LYS A   1      18.277 -17.066  16.831  0.00  0.00    -0.089 HD
ENDBRANCH   9  10
ENDBRANCH   8   9
ENDBRANCH   1   8
TORSDOF 7
REMARK  Name = ../refined-set-2016/3arv/3arv_pocket.pdb
REMARK  133 active torsions:
REMARK  status: ('A' for Active; 'I' for Inactive)
REMARK    1  A    between atoms: _1  and  _3
REMARK    2  A    between atoms: _3  and  _4
REMARK    3  A    between atoms: _3  and  _6
REMARK    4  A    between atoms: _6  and  _7
REMARK    5  A    between atoms: _17  and  _19
REMARK    6  A    between atoms: _19  and  _20
REMARK    7  A    between atoms: _19  and  _22
REMARK    8  A    between atoms: _22  and  _23
REMARK    9  A    between atoms: _29  and  _31
REMARK   10  A    between atoms: _31  and  _32
REMARK   11  A    between atoms: _31  and  _34
REMARK   12  A    between atoms: _34  and  _35
REMARK   13  A    between atoms: _37  and  _39
REMARK   14  A    between atoms: _39  and  _40
REMARK   15  A    between atoms: _39  and  _42
REMARK   16  A    between atoms: _45  and  _47
REMARK   17  A    between atoms: _47  and  _48
REMARK   18  A    between atoms: _47  and  _50
REMARK   19  A    between atoms: _50  and  _51
REMARK   20  A    between atoms: _53  and  _55
REMARK   21  A    between atoms: _55  and  _56
REMARK   22  A    between atoms: _55  and  _58
REMARK   23  A    between atoms: _61  and  _63
REMARK   24  A    between atoms: _63  and  _64
REMARK   25  A    between atoms: _66  and  _68
REMARK   26  A    between atoms: _68  and  _69
REMARK   27  A    between atoms: _68  and  _71
REMARK   28  A    between atoms: _71  and  _72
REMARK   29  A    between atoms: _82  and  _84
REMARK   30  A    between atoms: _84  and  _85
REMARK   31  A    between atoms: _84  and  _87
REMARK   32  A    between atoms: _87  and  _88
REMARK   33  A    between atoms: _91  and  _93
REMARK   34  A    between atoms: _93  and  _94
REMARK   35  A    between atoms: _93  and  _96
REMARK   36  A    between atoms: _96  and  _97
REMARK   37  A    between atoms: _100  and  _102
REMARK   38  A    between atoms: _102  and  _103
REMARK   39  A    between atoms: _102  and  _105
REMARK   40  A    between atoms: _105  and  _106
REMARK   41  A    between atoms: _106  and  _107
REMARK   42  A    between atoms: _110  and  _112
REMARK   43  A    between atoms: _112  and  _113
REMARK   44  A    between atoms: _112  and  _115
REMARK   45  A    between atoms: _115  and  _116
REMARK   46  A    between atoms: _122  and  _124
REMARK   47  A    between atoms: _124  and  _125
REMARK   48  A    between atoms: _127  and  _129
REMARK   49  A    between atoms: _129  and  _130
REMARK   50  A    between atoms: _132  and  _134
REMARK   51  A    between atoms: _134  and  _135
REMARK   52  A    between atoms: _138  and  _140
REMARK   53  A    between atoms: _140  and  _141
REMARK   54  A    between atoms: _140  and  _143
REMARK   55  A    between atoms: _143  and  _144
REMARK   56  A    between atoms: _144  and  _145
REMARK   57  A    between atoms: _145  and  _146
REMARK   58  A    between atoms: _146  and  _147
REMARK   59  A    between atoms: _151  and  _153
REMARK   60  A    between atoms: _153  and  _154
REMARK   61  A    between atoms: _153  and  _156
REMARK   62  A    between atoms: _156  and  _157
REMARK   63  A    between atoms: _157  and  _158
REMARK   64  A    between atoms: _160  and  _162
REMARK   65  A    between atoms: _162  and  _163
REMARK   66  A    between atoms: _162  and  _165
REMARK   67  A    between atoms: _165  and  _166
REMARK   68  A    between atoms: _171  and  _172
REMARK   69  A    between atoms: _174  and  _176
REMARK   70  A    between atoms: _176  and  _177
REMARK   71  A    between atoms: _176  and  _179
REMARK   72  A    between atoms: _179  and  _180
REMARK   73  A    between atoms: _183  and  _185
REMARK   74  A    between atoms: _185  and  _186
REMARK   75  A    between atoms: _185  and  _188
REMARK   76  A    between atoms: _188  and  _189
REMARK   77  A    between atoms: _195  and  _197
REMARK   78  A    between atoms: _197  and  _198
REMARK   79  A    between atoms: _197  and  _200
REMARK   80  A    between atoms: _200  and  _201
REMARK   81  A    between atoms: _206  and  _207
REMARK   82  A    between atoms: _209  and  _211
REMARK   83  A    between atoms: _211  and  _212
REMARK   84  A    between atoms: _214  and  _216
REMARK   85  A    between atoms: _216  and  _217
REMARK   86  A    between atoms: _219  and  _221
REMARK   87  A    between atoms: _221  and  _222
REMARK   88  A    between atoms: _221  and  _224
REMARK   89  A    between atoms: _224  and  _225
REMARK   90  A    between atoms: _235  and  _237
REMARK   91  A    between atoms: _237  and  _238
REMARK   92  A    between atoms: _237  and  _240
REMARK   93  A    between atoms: _240  and  _241
REMARK   94  A    between atoms: _246  and  _248
REMARK   95  A    between atoms: _248  and  _249
REMARK   96  A    between atoms: _248  and  _251
REMARK   97  A    between atoms: _251  and  _252
REMARK   98  A    between atoms: _257  and  _258
REMARK   99  A    between atoms: _260  and  _262
REMARK  100  A    between atoms: _262  and  _263
REMARK  101  A    between atoms: _262  and  _265
REMARK  102  A    between atoms: _265  and  _266
REMARK  103  A    between atoms: _271  and  _272
REMARK  104  A    between atoms: _274  and  _276
REMARK  105  A    between atoms: _276  and  _277
REMARK  106  A    between atoms: _276  and  _279
REMARK  107  A    between atoms: _279  and  _280
REMARK  108  A    between atoms: _280  and  _281
REMARK  109  A    between atoms: _281  and  _282
REMARK  110  A    between atoms: _291  and  _293
REMARK  111  A    between atoms: _293  and  _294
REMARK  112  A    between atoms: _293  and  _296
REMARK  113  A    between atoms: _296  and  _297
REMARK  114  A    between atoms: _297  and  _298
REMARK  115  A    between atoms: _298  and  _299
REMARK  116  A    between atoms: _299  and  _300
REMARK  117  A    between atoms: _304  and  _306
REMARK  118  A    between atoms: _306  and  _307
REMARK  119  A    between atoms: _306  and  _309
REMARK  120  A    between atoms: _309  and  _310
REMARK  121  A    between atoms: _310  and  _311
REMARK  122  A    between atoms: _314  and  _316
REMARK  123  A    between atoms: _316  and  _317
REMARK  124  A    between atoms: _316  and  _319
REMARK  125  A    between atoms: _322  and  _324
REMARK  126  A    between atoms: _324  and  _325
REMARK  127  A    between atoms: _324  and  _327
REMARK  128  A    between atoms: _327  and  _328
REMARK  129  A    between atoms: _338  and  _340
REMARK  130  A    between atoms: _340  and  _341
REMARK  131  A    between atoms: _340  and  _343
REMARK  132  A    between atoms: _343  and  _344
REMARK  133  A    between atoms: _344  and  _345
REMARK                            x       y       z     vdW  Elec       q    Type
REMARK                         _______ _______ _______ _____ _____    ______ ____
ROOT
ATOM      1  CA  MET A   1       9.033 -12.347  14.498  0.00  0.00    +0.134 C 
ENDROOT
BRANCH   1   2
ATOM      2  N   MET A   1       8.337 -13.527  13.859  0.00  0.00    -0.239 NA
ATOM      3  H   MET A   1       8.599 -14.487  14.160  0.00  0.00    +0.142 HD
ENDBRANCH   1   2
BRANCH   1   4
ATOM      4  C   MET A   1      10.074 -11.807  13.518  0.00  0.00    +0.224 C 
ATOM      5  O   MET A   1      11.279 -11.991  13.712  0.00  0.00    -0.287 OA
ENDBRANCH   1   4
BRANCH   1   6
ATOM      6  CB  MET A   1       9.705 -12.782  15.790  0.00  0.00    +0.037 C 
BRANCH   6   7
ATOM      7  CG  MET A   1       8.716 -13.321  16.848  0.00  0.00    +0.059 C 
BRANCH   7   8
ATOM      8  SD  MET A   1       9.546 -14.123  18.284  0.00  0.00    -0.139 S 
ATOM      9  CE  MET A   1      10.800 -12.988  18.709  0.00  0.00    +0.069 C 
ENDBRANCH   7   8
ENDBRANCH   6   7
ENDBRANCH   1   6
TORSDOF 5
REMARK  Name = ../refined-set-2016/3arv/3arv_pocket.pdb
REMARK  133 active torsions:
REMARK  status: ('A' for Active; 'I' for Inactive)
REMARK    1  A    between atoms: _1  and  _3
REMARK    2  A    between atoms: _3  and  _4
REMARK    3  A    between atoms: _3  and  _6
REMARK    4  A    between atoms: _6  and  _7
REMARK    5  A    between atoms: _17  and  _19
REMARK    6  A    between atoms: _19  and  _20
REMARK    7  A    between atoms: _19  and  _22
REMARK    8  A    between atoms: _22  and  _23
REMARK    9  A    between atoms: _29  and  _31
REMARK   10  A    between atoms: _31  and  _32
REMARK   11  A    between atoms: _31  and  _34
REMARK   12  A    between atoms: _34  and  _35
REMARK   13  A    between atoms: _37  and  _39
REMARK   14  A    between atoms: _39  and  _40
REMARK   15  A    between atoms: _39  and  _42
REMARK   16  A    between atoms: _45  and  _47
REMARK   17  A    between atoms: _47  and  _48
REMARK   18  A    between atoms: _47  and  _50
REMARK   19  A    between atoms: _50  and  _51
REMARK   20  A    between atoms: _53  and  _55
REMARK   21  A    between atoms: _55  and  _56
REMARK   22  A    between atoms: _55  and  _58
REMARK   23  A    between atoms: _61  and  _63
REMARK   24  A    between atoms: _63  and  _64
REMARK   25  A    between atoms: _66  and  _68
REMARK   26  A    between atoms: _68  and  _69
REMARK   27  A    between atoms: _68  and  _71
REMARK   28  A    between atoms: _71  and  _72
REMARK   29  A    between atoms: _82  and  _84
REMARK   30  A    between atoms: _84  and  _85
REMARK   31  A    between atoms: _84  and  _87
REMARK   32  A    between atoms: _87  and  _88
REMARK   33  A    between atoms: _91  and  _93
REMARK   34  A    between atoms: _93  and  _94
REMARK   35  A    between atoms: _93  and  _96
REMARK   36  A    between atoms: _96  and  _97
REMARK   37  A    between atoms: _100  and  _102
REMARK   38  A    between atoms: _102  and  _103
REMARK   39  A    between atoms: _102  and  _105
REMARK   40  A    between atoms: _105  and  _106
REMARK   41  A    between atoms: _106  and  _107
REMARK   42  A    between atoms: _110  and  _112
REMARK   43  A    between atoms: _112  and  _113
REMARK   44  A    between atoms: _112  and  _115
REMARK   45  A    between atoms: _115  and  _116
REMARK   46  A    between atoms: _122  and  _124
REMARK   47  A    between atoms: _124  and  _125
REMARK   48  A    between atoms: _127  and  _129
REMARK   49  A    between atoms: _129  and  _130
REMARK   50  A    between atoms: _132  and  _134
REMARK   51  A    between atoms: _134  and  _135
REMARK   52  A    between atoms: _138  and  _140
REMARK   53  A    between atoms: _140  and  _141
REMARK   54  A    between atoms: _140  and  _143
REMARK   55  A    between atoms: _143  and  _144
REMARK   56  A    between atoms: _144  and  _145
REMARK   57  A    between atoms: _145  and  _146
REMARK   58  A    between atoms: _146  and  _147
REMARK   59  A    between atoms: _151  and  _153
REMARK   60  A    between atoms: _153  and  _154
REMARK   61  A    between atoms: _153  and  _156
REMARK   62  A    between atoms: _156  and  _157
REMARK   63  A    between atoms: _157  and  _158
REMARK   64  A    between atoms: _160  and  _162
REMARK   65  A    between atoms: _162  and  _163
REMARK   66  A    between atoms: _162  and  _165
REMARK   67  A    between atoms: _165  and  _166
REMARK   68  A    between atoms: _171  and  _172
REMARK   69  A    between atoms: _174  and  _176
REMARK   70  A    between atoms: _176  and  _177
REMARK   71  A    between atoms: _176  and  _179
REMARK   72  A    between atoms: _179  and  _180
REMARK   73  A    between atoms: _183  and  _185
REMARK   74  A    between atoms: _185  and  _186
REMARK   75  A    between atoms: _185  and  _188
REMARK   76  A    between atoms: _188  and  _189
REMARK   77  A    between atoms: _195  and  _197
REMARK   78  A    between atoms: _197  and  _198
REMARK   79  A    between atoms: _197  and  _200
REMARK   80  A    between atoms: _200  and  _201
REMARK   81  A    between atoms: _206  and  _207
REMARK   82  A    between atoms: _209  and  _211
REMARK   83  A    between atoms: _211  and  _212
REMARK   84  A    between atoms: _214  and  _216
REMARK   85  A    between atoms: _216  and  _217
REMARK   86  A    between atoms: _219  and  _221
REMARK   87  A    between atoms: _221  and  _222
REMARK   88  A    between atoms: _221  and  _224
REMARK   89  A    between atoms: _224  and  _225
REMARK   90  A    between atoms: _235  and  _237
REMARK   91  A    between atoms: _237  and  _238
REMARK   92  A    between atoms: _237  and  _240
REMARK   93  A    between atoms: _240  and  _241
REMARK   94  A    between atoms: _246  and  _248
REMARK   95  A    between atoms: _248  and  _249
REMARK   96  A    between atoms: _248  and  _251
REMARK   97  A    between atoms: _251  and  _252
REMARK   98  A    between atoms: _257  and  _258
REMARK   99  A    between atoms: _260  and  _262
REMARK  100  A    between atoms: _262  and  _263
REMARK  101  A    between atoms: _262  and  _265
REMARK  102  A    between atoms: _265  and  _266
REMARK  103  A    between atoms: _271  and  _272
REMARK  104  A    between atoms: _274  and  _276
REMARK  105  A    between atoms: _276  and  _277
REMARK  106  A    between atoms: _276  and  _279
REMARK  107  A    between atoms: _279  and  _280
REMARK  108  A    between atoms: _280  and  _281
REMARK  109  A    between atoms: _281  and  _282
REMARK  110  A    between atoms: _291  and  _293
REMARK  111  A    between atoms: _293  and  _294
REMARK  112  A    between atoms: _293  and  _296
REMARK  113  A    between atoms: _296  and  _297
REMARK  114  A    between atoms: _297  and  _298
REMARK  115  A    between atoms: _298  and  _299
REMARK  116  A    between atoms: _299  and  _300
REMARK  117  A    between atoms: _304  and  _306
REMARK  118  A    between atoms: _306  and  _307
REMARK  119  A    between atoms: _306  and  _309
REMARK  120  A    between atoms: _309  and  _310
REMARK  121  A    between atoms: _310  and  _311
REMARK  122  A    between atoms: _314  and  _316
REMARK  123  A    between atoms: _316  and  _317
REMARK  124  A    between atoms: _316  and  _319
REMARK  125  A    between atoms: _322  and  _324
REMARK  126  A    between atoms: _324  and  _325
REMARK  127  A    between atoms: _324  and  _327
REMARK  128  A    between atoms: _327  and  _328
REMARK  129  A    between atoms: _338  and  _340
REMARK  130  A    between atoms: _340  and  _341
REMARK  131  A    between atoms: _340  and  _343
REMARK  132  A    between atoms: _343  and  _344
REMARK  133  A    between atoms: _344  and  _345
REMARK                            x       y       z     vdW  Elec       q    Type
REMARK                         _______ _______ _______ _____ _____    ______ ____
ROOT
ATOM      1  CA  TYR A   4      20.456  -6.597  14.026  0.00  0.00    +0.153 C 
ENDROOT
BRANCH   1   2
ATOM      2  C   TYR A   4      20.054  -5.652  15.112  0.00  0.00    +0.241 C 
ATOM      3  N   GLY A   5      21.027  -5.262  15.930  0.00  0.00    -0.295 N 
ATOM      4  H   GLY A   5      22.006  -5.586  15.795  0.00  0.00    +0.150 HD
ATOM      5  O   TYR A   4      18.876  -5.270  15.303  0.00  0.00    -0.273 OA
BRANCH   3   6
ATOM      6  CA  GLY A   5      20.666  -4.347  17.043  0.00  0.00    +0.176 C 
BRANCH   6   7
ATOM      7  C   GLY A   5      21.879  -4.003  17.902  0.00  0.00    +0.243 C 
ATOM      8  N   GLY A   6      21.560  -3.210  18.923  0.00  0.00    -0.295 N 
ATOM      9  H   GLY A   6      20.562  -3.016  19.140  0.00  0.00    +0.150 HD
ATOM     10  O   GLY A   5      23.003  -4.358  17.603  0.00  0.00    -0.273 OA
BRANCH   8  11
ATOM     11  CA  GLY A   6      22.658  -2.590  19.769  0.00  0.00    +0.176 C 
BRANCH  11  12
ATOM     12  C   GLY A   6      23.296  -3.564  20.706  0.00  0.00    +0.243 C 
ATOM     13  O   GLY A   6      24.273  -3.158  21.382  0.00  0.00    -0.273 OA
ATOM     14  N   TRP A   7      22.925  -4.839  20.731  0.00  0.00    -0.297 N 
ATOM     15  H   TRP A   7      22.105  -5.150  20.172  0.00  0.00    +0.150 HD
BRANCH  14  16
ATOM     16  CA  TRP A   7      23.663  -5.806  21.540  0.00  0.00    +0.153 C 
BRANCH  16  17
ATOM     17  C   TRP A   7      25.043  -5.998  21.052  0.00  0.00    +0.241 C 
ATOM     18  O   TRP A   7      25.909  -6.503  21.799  0.00  0.00    -0.273 OA
ATOM     19  N   ASN A   8      25.353  -5.682  19.820  0.00  0.00    -0.298 N 
ATOM     20  H   ASN A   8      24.586  -5.483  19.147  0.00  0.00    +0.150 HD
BRANCH  19  21
ATOM     21  CA  ASN A   8      26.744  -5.598  19.352  0.00  0.00    +0.146 C 
BRANCH  21  22
ATOM     22  C   ASN A   8      26.970  -4.355  18.495  0.00  0.00    +0.227 C 
ATOM     23  O   ASN A   8      26.039  -3.485  18.469  0.00  0.00    -0.286 OA
ENDBRANCH  21  22
BRANCH  21  24
ATOM     24  CB  ASN A   8      27.147  -6.914  18.665  0.00  0.00    +0.112 C 
BRANCH  24  25
ATOM     25  CG  ASN A   8      26.366  -7.131  17.365  0.00  0.00    +0.222 C 
ATOM     26  ND2 ASN A   8      26.068  -8.383  17.043  0.00  0.00    -0.329 N 
ATOM     27 HD21 ASN A   8      26.399  -9.167  17.641  0.00  0.00    +0.145 HD
ATOM     28 HD22 ASN A   8      25.504  -8.581  16.192  0.00  0.00    +0.145 HD
ATOM     29  OD1 ASN A   8      26.001  -6.159  16.693  0.00  0.00    -0.275 OA
ENDBRANCH  24  25
ENDBRANCH  21  24
ENDBRANCH  19  21
ENDBRANCH  16  17
BRANCH  16  30
ATOM     30  CB  TRP A   7      22.899  -7.166  21.573  0.00  0.00    +0.057 C 
BRANCH  30  31
ATOM     31  CG  TRP A   7      22.489  -7.645  20.213  0.00  0.00    -0.002 A 
ATOM     32  CD2 TRP A   7      21.216  -7.453  19.621  0.00  0.00    +0.013 A 
ATOM     33  CE3 TRP A   7      20.058  -6.831  20.064  0.00  0.00    +0.001 A 
ATOM     34  CZ3 TRP A   7      18.921  -6.892  19.227  0.00  0.00    +0.000 A 
ATOM     35  CH2 TRP A   7      18.978  -7.520  17.954  0.00  0.00    +0.001 A 
ATOM     36  CZ2 TRP A   7      20.083  -8.147  17.498  0.00  0.00    +0.017 A 
ATOM     37  CE2 TRP A   7      21.232  -8.105  18.350  0.00  0.00    +0.056 A 
ATOM     38  NE1 TRP A   7      22.473  -8.627  18.178  0.00  0.00    -0.352 N 
ATOM     39  HE1 TRP A   7      22.809  -9.128  17.331  0.00  0.00    +0.166 HD
ATOM     40  CD1 TRP A   7      23.220  -8.379  19.327  0.00  0.00    +0.068 A 
ENDBRANCH  30  31
ENDBRANCH  16  30
ENDBRANCH  14  16
ENDBRANCH  11  12
ENDBRANCH   8  11
ENDBRANCH   6   7
ENDBRANCH   3   6
ENDBRANCH   1   2
BRANCH   1  42
ATOM     41  C   PHE A   3      19.110  -8.630  13.408  0.00  0.00    +0.241 C 
ATOM     42  N   TYR A   4      19.191  -7.310  13.691  0.00  0.00    -0.297 N 
ATOM     43  H   TYR A   4      18.311  -6.755  13.674  0.00  0.00    +0.150 HD
ATOM     44  O   PHE A   3      20.098  -9.385  13.295  0.00  0.00    -0.273 OA
BRANCH  41  45
ATOM     45  CA  PHE A   3      17.723  -9.124  13.081  0.00  0.00    +0.153 C 
BRANCH  45  48
ATOM     46  C   ASP A   2      16.487  -8.630  15.086  0.00  0.00    +0.241 C 
ATOM     47  O   ASP A   2      17.206  -9.384  15.752  0.00  0.00    -0.273 OA
ATOM     48  N   PHE A   3      16.661  -8.390  13.782  0.00  0.00    -0.297 N 
ATOM     49  H   PHE A   3      16.062  -7.704  13.279  0.00  0.00    +0.150 HD
BRANCH  46  50
ATOM     50  CA  ASP A   2      15.410  -7.823  15.790  0.00  0.00    +0.160 C 
BRANCH  50  52
ATOM     51  C   TYR A   1      13.486  -8.486  14.383  0.00  0.00    +0.239 C 
ATOM     52  N   ASP A   2      14.242  -7.539  14.921  0.00  0.00    -0.297 N 
ATOM     53  H   ASP A   2      14.004  -6.546  14.724  0.00  0.00    +0.150 HD
ATOM     54  O   TYR A   1      13.697  -9.675  14.592  0.00  0.00    -0.274 OA
BRANCH  51  55
ATOM     55  CA  TYR A   1      12.387  -8.039  13.392  0.00  0.00    +0.149 C 
BRANCH  55  56
ATOM     56  N   TYR A   1      11.766  -9.298  12.857  0.00  0.00    -0.238 NA
ATOM     57  H   TYR A   1      11.905 -10.190  13.374  0.00  0.00    +0.142 HD
ENDBRANCH  55  56
BRANCH  55  58
ATOM     58  CB  TYR A   1      11.353  -7.108  14.082  0.00  0.00    +0.053 C 
BRANCH  58  59
ATOM     59  CG  TYR A   1      10.314  -7.833  14.920  0.00  0.00    -0.020 A 
ATOM     60  CD2 TYR A   1      10.618  -8.430  16.148  0.00  0.00    -0.001 A 
ATOM     61  CE2 TYR A   1       9.580  -8.991  16.956  0.00  0.00    +0.036 A 
ATOM     62  CZ  TYR A   1       8.306  -8.977  16.504  0.00  0.00    +0.134 A 
ATOM     63  CE1 TYR A   1       8.010  -8.359  15.303  0.00  0.00    +0.036 A 
ATOM     64  CD1 TYR A   1       8.975  -7.795  14.524  0.00  0.00    -0.001 A 
BRANCH  62  65
ATOM     65  OH  TYR A   1       7.333  -9.504  17.340  0.00  0.00    -0.506 OA
ATOM     66  HH  TYR A   1       7.764  -9.896  18.140  0.00  0.00    +0.292 HD
ENDBRANCH  62  65
ENDBRANCH  58  59
ENDBRANCH  55  58
ENDBRANCH  51  55
ENDBRANCH  50  52
BRANCH  50  67
ATOM     67  CB  ASP A   2      14.987  -8.513  17.106  0.00  0.00    +0.143 C 
BRANCH  67  68
ATOM     68  CG  ASP A   2      14.020  -7.749  17.916  0.00  0.00    +0.367 C 
ATOM     69  OD2 ASP A   2      13.217  -8.395  18.663  0.00  0.00    -0.246 OA
ATOM     70  OD1 ASP A   2      13.962  -6.491  17.819  0.00  0.00    -0.246 OA
ENDBRANCH  67  68
ENDBRANCH  50  67
ENDBRANCH  46  50
ENDBRANCH  45  48
BRANCH  45  71
ATOM     71  CB  PHE A   3      17.508  -9.039  11.580  0.00  0.00    +0.055 C 
BRANCH  71  72
ATOM     72  CG  PHE A   3      16.199  -9.591  11.048  0.00  0.00    -0.020 A 
ATOM     73  CD2 PHE A   3      15.639 -10.684  11.662  0.00  0.00    -0.004 A 
ATOM     74  CE2 PHE A   3      14.435 -11.218  11.152  0.00  0.00    -0.000 A 
ATOM     75  CZ  PHE A   3      13.816 -10.627  10.010  0.00  0.00    -0.000 A 
ATOM     76  CE1 PHE A   3      14.395  -9.493   9.392  0.00  0.00    -0.000 A 
ATOM     77  CD1 PHE A   3      15.604  -9.032   9.885  0.00  0.00    -0.004 A 
ENDBRANCH  71  72
ENDBRANCH  45  71
ENDBRANCH  41  45
ENDBRANCH   1  42
BRANCH   1  78
ATOM     78  CB  TYR A   4      20.962  -5.788  12.832  0.00  0.00    +0.055 C 
BRANCH  78  79
ATOM     79  CG  TYR A   4      21.592  -6.610  11.782  0.00  0.00    -0.020 A 
ATOM     80  CD2 TYR A   4      22.982  -6.811  11.784  0.00  0.00    -0.001 A 
ATOM     81  CE2 TYR A   4      23.567  -7.607  10.846  0.00  0.00    +0.036 A 
ATOM     82  CZ  TYR A   4      22.829  -8.287   9.892  0.00  0.00    +0.134 A 
ATOM     83  CE1 TYR A   4      21.451  -8.135   9.876  0.00  0.00    +0.036 A 
ATOM     84  CD1 TYR A   4      20.819  -7.325  10.835  0.00  0.00    -0.001 A 
BRANCH  82  85
ATOM     85  OH  TYR A   4      23.431  -9.115   8.907  0.00  0.00    -0.506 OA
ATOM     86  HH  TYR A   4      24.050  -8.574   8.356  0.00  0.00    +0.292 HD
ENDBRANCH  82  85
ENDBRANCH  78  79
ENDBRANCH   1  78
TORSDOF 30
REMARK  Name = ../refined-set-2016/3arv/3arv_pocket.pdb
REMARK  133 active torsions:
REMARK  status: ('A' for Active; 'I' for Inactive)
REMARK    1  A    between atoms: _1  and  _3
REMARK    2  A    between atoms: _3  and  _4
REMARK    3  A    between atoms: _3  and  _6
REMARK    4  A    between atoms: _6  and  _7
REMARK    5  A    between atoms: _17  and  _19
REMARK    6  A    between atoms: _19  and  _20
REMARK    7  A    between atoms: _19  and  _22
REMARK    8  A    between atoms: _22  and  _23
REMARK    9  A    between atoms: _29  and  _31
REMARK   10  A    between atoms: _31  and  _32
REMARK   11  A    between atoms: _31  and  _34
REMARK   12  A    between atoms: _34  and  _35
REMARK   13  A    between atoms: _37  and  _39
REMARK   14  A    between atoms: _39  and  _40
REMARK   15  A    between atoms: _39  and  _42
REMARK   16  A    between atoms: _45  and  _47
REMARK   17  A    between atoms: _47  and  _48
REMARK   18  A    between atoms: _47  and  _50
REMARK   19  A    between atoms: _50  and  _51
REMARK   20  A    between atoms: _53  and  _55
REMARK   21  A    between atoms: _55  and  _56
REMARK   22  A    between atoms: _55  and  _58
REMARK   23  A    between atoms: _61  and  _63
REMARK   24  A    between atoms: _63  and  _64
REMARK   25  A    between atoms: _66  and  _68
REMARK   26  A    between atoms: _68  and  _69
REMARK   27  A    between atoms: _68  and  _71
REMARK   28  A    between atoms: _71  and  _72
REMARK   29  A    between atoms: _82  and  _84
REMARK   30  A    between atoms: _84  and  _85
REMARK   31  A    between atoms: _84  and  _87
REMARK   32  A    between atoms: _87  and  _88
REMARK   33  A    between atoms: _91  and  _93
REMARK   34  A    between atoms: _93  and  _94
REMARK   35  A    between atoms: _93  and  _96
REMARK   36  A    between atoms: _96  and  _97
REMARK   37  A    between atoms: _100  and  _102
REMARK   38  A    between atoms: _102  and  _103
REMARK   39  A    between atoms: _102  and  _105
REMARK   40  A    between atoms: _105  and  _106
REMARK   41  A    between atoms: _106  and  _107
REMARK   42  A    between atoms: _110  and  _112
REMARK   43  A    between atoms: _112  and  _113
REMARK   44  A    between atoms: _112  and  _115
REMARK   45  A    between atoms: _115  and  _116
REMARK   46  A    between atoms: _122  and  _124
REMARK   47  A    between atoms: _124  and  _125
REMARK   48  A    between atoms: _127  and  _129
REMARK   49  A    between atoms: _129  and  _130
REMARK   50  A    between atoms: _132  and  _134
REMARK   51  A    between atoms: _134  and  _135
REMARK   52  A    between atoms: _138  and  _140
REMARK   53  A    between atoms: _140  and  _141
REMARK   54  A    between atoms: _140  and  _143
REMARK   55  A    between atoms: _143  and  _144
REMARK   56  A    between atoms: _144  and  _145
REMARK   57  A    between atoms: _145  and  _146
REMARK   58  A    between atoms: _146  and  _147
REMARK   59  A    between atoms: _151  and  _153
REMARK   60  A    between atoms: _153  and  _154
REMARK   61  A    between atoms: _153  and  _156
REMARK   62  A    between atoms: _156  and  _157
REMARK   63  A    between atoms: _157  and  _158
REMARK   64  A    between atoms: _160  and  _162
REMARK   65  A    between atoms: _162  and  _163
REMARK   66  A    between atoms: _162  and  _165
REMARK   67  A    between atoms: _165  and  _166
REMARK   68  A    between atoms: _171  and  _172
REMARK   69  A    between atoms: _174  and  _176
REMARK   70  A    between atoms: _176  and  _177
REMARK   71  A    between atoms: _176  and  _179
REMARK   72  A    between atoms: _179  and  _180
REMARK   73  A    between atoms: _183  and  _185
REMARK   74  A    between atoms: _185  and  _186
REMARK   75  A    between atoms: _185  and  _188
REMARK   76  A    between atoms: _188  and  _189
REMARK   77  A    between atoms: _195  and  _197
REMARK   78  A    between atoms: _197  and  _198
REMARK   79  A    between atoms: _197  and  _200
REMARK   80  A    between atoms: _200  and  _201
REMARK   81  A    between atoms: _206  and  _207
REMARK   82  A    between atoms: _209  and  _211
REMARK   83  A    between atoms: _211  and  _212
REMARK   84  A    between atoms: _214  and  _216
REMARK   85  A    between atoms: _216  and  _217
REMARK   86  A    between atoms: _219  and  _221
REMARK   87  A    between atoms: _221  and  _222
REMARK   88  A    between atoms: _221  and  _224
REMARK   89  A    between atoms: _224  and  _225
REMARK   90  A    between atoms: _235  and  _237
REMARK   91  A    between atoms: _237  and  _238
REMARK   92  A    between atoms: _237  and  _240
REMARK   93  A    between atoms: _240  and  _241
REMARK   94  A    between atoms: _246  and  _248
REMARK   95  A    between atoms: _248  and  _249
REMARK   96  A    between atoms: _248  and  _251
REMARK   97  A    between atoms: _251  and  _252
REMARK   98  A    between atoms: _257  and  _258
REMARK   99  A    between atoms: _260  and  _262
REMARK  100  A    between atoms: _262  and  _263
REMARK  101  A    between atoms: _262  and  _265
REMARK  102  A    between atoms: _265  and  _266
REMARK  103  A    between atoms: _271  and  _272
REMARK  104  A    between atoms: _274  and  _276
REMARK  105  A    between atoms: _276  and  _277
REMARK  106  A    between atoms: _276  and  _279
REMARK  107  A    between atoms: _279  and  _280
REMARK  108  A    between atoms: _280  and  _281
REMARK  109  A    between atoms: _281  and  _282
REMARK  110  A    between atoms: _291  and  _293
REMARK  111  A    between atoms: _293  and  _294
REMARK  112  A    between atoms: _293  and  _296
REMARK  113  A    between atoms: _296  and  _297
REMARK  114  A    between atoms: _297  and  _298
REMARK  115  A    between atoms: _298  and  _299
REMARK  116  A    between atoms: _299  and  _300
REMARK  117  A    between atoms: _304  and  _306
REMARK  118  A    between atoms: _306  and  _307
REMARK  119  A    between atoms: _306  and  _309
REMARK  120  A    between atoms: _309  and  _310
REMARK  121  A    between atoms: _310  and  _311
REMARK  122  A    between atoms: _314  and  _316
REMARK  123  A    between atoms: _316  and  _317
REMARK  124  A    between atoms: _316  and  _319
REMARK  125  A    between atoms: _322  and  _324
REMARK  126  A    between atoms: _324  and  _325
REMARK  127  A    between atoms: _324  and  _327
REMARK  128  A    between atoms: _327  and  _328
REMARK  129  A    between atoms: _338  and  _340
REMARK  130  A    between atoms: _340  and  _341
REMARK  131  A    between atoms: _340  and  _343
REMARK  132  A    between atoms: _343  and  _344
REMARK  133  A    between atoms: _344  and  _345
REMARK                            x       y       z     vdW  Elec       q    Type
REMARK                         _______ _______ _______ _____ _____    ______ ____
ROOT
ATOM      1  CG  TYR A   1      19.317 -13.336  11.422  0.00  0.00    -0.020 A 
ATOM      2  CD2 TYR A   1      19.213 -12.973  12.770  0.00  0.00    -0.001 A 
ATOM      3  CE2 TYR A   1      19.424 -13.925  13.802  0.00  0.00    +0.036 A 
ATOM      4  CZ  TYR A   1      19.694 -15.230  13.433  0.00  0.00    +0.134 A 
ATOM      5  CE1 TYR A   1      19.784 -15.625  12.048  0.00  0.00    +0.036 A 
ATOM      6  CD1 TYR A   1      19.519 -14.645  11.125  0.00  0.00    -0.001 A 
ENDROOT
BRANCH   4   7
ATOM      7  OH  TYR A   1      19.937 -16.147  14.467  0.00  0.00    -0.506 OA
ATOM      8  HH  TYR A   1      20.116 -17.040  14.079  0.00  0.00    +0.292 HD
ENDBRANCH   4   7
BRANCH   1   9
ATOM      9  CB  TYR A   1      18.962 -12.284  10.395  0.00  0.00    +0.051 C 
BRANCH   9  10
ATOM     10  CA  TYR A   1      18.689 -12.742   8.935  0.00  0.00    +0.137 C 
BRANCH  10  11
ATOM     11  N   TYR A   1      19.960 -13.071   8.246  0.00  0.00    -0.239 NA
ATOM     12  H   TYR A   1      20.858 -12.658   8.569  0.00  0.00    +0.142 HD
ENDBRANCH  10  11
BRANCH  10  13
ATOM     13  C   TYR A   1      17.901 -11.735   8.148  0.00  0.00    +0.224 C 
ATOM     14  O   TYR A   1      18.167 -10.538   8.257  0.00  0.00    -0.287 OA
ENDBRANCH  10  13
ENDBRANCH   9  10
ENDBRANCH   1   9
TORSDOF 5
REMARK  Name = ../refined-set-2016/3arv/3arv_pocket.pdb
REMARK  133 active torsions:
REMARK  status: ('A' for Active; 'I' for Inactive)
REMARK    1  A    between atoms: _1  and  _3
REMARK    2  A    between atoms: _3  and  _4
REMARK    3  A    between atoms: _3  and  _6
REMARK    4  A    between atoms: _6  and  _7
REMARK    5  A    between atoms: _17  and  _19
REMARK    6  A    between atoms: _19  and  _20
REMARK    7  A    between atoms: _19  and  _22
REMARK    8  A    between atoms: _22  and  _23
REMARK    9  A    between atoms: _29  and  _31
REMARK   10  A    between atoms: _31  and  _32
REMARK   11  A    between atoms: _31  and  _34
REMARK   12  A    between atoms: _34  and  _35
REMARK   13  A    between atoms: _37  and  _39
REMARK   14  A    between atoms: _39  and  _40
REMARK   15  A    between atoms: _39  and  _42
REMARK   16  A    between atoms: _45  and  _47
REMARK   17  A    between atoms: _47  and  _48
REMARK   18  A    between atoms: _47  and  _50
REMARK   19  A    between atoms: _50  and  _51
REMARK   20  A    between atoms: _53  and  _55
REMARK   21  A    between atoms: _55  and  _56
REMARK   22  A    between atoms: _55  and  _58
REMARK   23  A    between atoms: _61  and  _63
REMARK   24  A    between atoms: _63  and  _64
REMARK   25  A    between atoms: _66  and  _68
REMARK   26  A    between atoms: _68  and  _69
REMARK   27  A    between atoms: _68  and  _71
REMARK   28  A    between atoms: _71  and  _72
REMARK   29  A    between atoms: _82  and  _84
REMARK   30  A    between atoms: _84  and  _85
REMARK   31  A    between atoms: _84  and  _87
REMARK   32  A    between atoms: _87  and  _88
REMARK   33  A    between atoms: _91  and  _93
REMARK   34  A    between atoms: _93  and  _94
REMARK   35  A    between atoms: _93  and  _96
REMARK   36  A    between atoms: _96  and  _97
REMARK   37  A    between atoms: _100  and  _102
REMARK   38  A    between atoms: _102  and  _103
REMARK   39  A    between atoms: _102  and  _105
REMARK   40  A    between atoms: _105  and  _106
REMARK   41  A    between atoms: _106  and  _107
REMARK   42  A    between atoms: _110  and  _112
REMARK   43  A    between atoms: _112  and  _113
REMARK   44  A    between atoms: _112  and  _115
REMARK   45  A    between atoms: _115  and  _116
REMARK   46  A    between atoms: _122  and  _124
REMARK   47  A    between atoms: _124  and  _125
REMARK   48  A    between atoms: _127  and  _129
REMARK   49  A    between atoms: _129  and  _130
REMARK   50  A    between atoms: _132  and  _134
REMARK   51  A    between atoms: _134  and  _135
REMARK   52  A    between atoms: _138  and  _140
REMARK   53  A    between atoms: _140  and  _141
REMARK   54  A    between atoms: _140  and  _143
REMARK   55  A    between atoms: _143  and  _144
REMARK   56  A    between atoms: _144  and  _145
REMARK   57  A    between atoms: _145  and  _146
REMARK   58  A    between atoms: _146  and  _147
REMARK   59  A    between atoms: _151  and  _153
REMARK   60  A    between atoms: _153  and  _154
REMARK   61  A    between atoms: _153  and  _156
REMARK   62  A    between atoms: _156  and  _157
REMARK   63  A    between atoms: _157  and  _158
REMARK   64  A    between atoms: _160  and  _162
REMARK   65  A    between atoms: _162  and  _163
REMARK   66  A    between atoms: _162  and  _165
REMARK   67  A    between atoms: _165  and  _166
REMARK   68  A    between atoms: _171  and  _172
REMARK   69  A    between atoms: _174  and  _176
REMARK   70  A    between atoms: _176  and  _177
REMARK   71  A    between atoms: _176  and  _179
REMARK   72  A    between atoms: _179  and  _180
REMARK   73  A    between atoms: _183  and  _185
REMARK   74  A    between atoms: _185  and  _186
REMARK   75  A    between atoms: _185  and  _188
REMARK   76  A    between atoms: _188  and  _189
REMARK   77  A    between atoms: _195  and  _197
REMARK   78  A    between atoms: _197  and  _198
REMARK   79  A    between atoms: _197  and  _200
REMARK   80  A    between atoms: _200  and  _201
REMARK   81  A    between atoms: _206  and  _207
REMARK   82  A    between atoms: _209  and  _211
REMARK   83  A    between atoms: _211  and  _212
REMARK   84  A    between atoms: _214  and  _216
REMARK   85  A    between atoms: _216  and  _217
REMARK   86  A    between atoms: _219  and  _221
REMARK   87  A    between atoms: _221  and  _222
REMARK   88  A    between atoms: _221  and  _224
REMARK   89  A    between atoms: _224  and  _225
REMARK   90  A    between atoms: _235  and  _237
REMARK   91  A    between atoms: _237  and  _238
REMARK   92  A    between atoms: _237  and  _240
REMARK   93  A    between atoms: _240  and  _241
REMARK   94  A    between atoms: _246  and  _248
REMARK   95  A    between atoms: _248  and  _249
REMARK   96  A    between atoms: _248  and  _251
REMARK   97  A    between atoms: _251  and  _252
REMARK   98  A    between atoms: _257  and  _258
REMARK   99  A    between atoms: _260  and  _262
REMARK  100  A    between atoms: _262  and  _263
REMARK  101  A    between atoms: _262  and  _265
REMARK  102  A    between atoms: _265  and  _266
REMARK  103  A    between atoms: _271  and  _272
REMARK  104  A    between atoms: _274  and  _276
REMARK  105  A    between atoms: _276  and  _277
REMARK  106  A    between atoms: _276  and  _279
REMARK  107  A    between atoms: _279  and  _280
REMARK  108  A    between atoms: _280  and  _281
REMARK  109  A    between atoms: _281  and  _282
REMARK  110  A    between atoms: _291  and  _293
REMARK  111  A    between atoms: _293  and  _294
REMARK  112  A    between atoms: _293  and  _296
REMARK  113  A    between atoms: _296  and  _297
REMARK  114  A    between atoms: _297  and  _298
REMARK  115  A    between atoms: _298  and  _299
REMARK  116  A    between atoms: _299  and  _300
REMARK  117  A    between atoms: _304  and  _306
REMARK  118  A    between atoms: _306  and  _307
REMARK  119  A    between atoms: _306  and  _309
REMARK  120  A    between atoms: _309  and  _310
REMARK  121  A    between atoms: _310  and  _311
REMARK  122  A    between atoms: _314  and  _316
REMARK  123  A    between atoms: _316  and  _317
REMARK  124  A    between atoms: _316  and  _319
REMARK  125  A    between atoms: _322  and  _324
REMARK  126  A    between atoms: _324  and  _325
REMARK  127  A    between atoms: _324  and  _327
REMARK  128  A    between atoms: _327  and  _328
REMARK  129  A    between atoms: _338  and  _340
REMARK  130  A    between atoms: _340  and  _341
REMARK  131  A    between atoms: _340  and  _343
REMARK  132  A    between atoms: _343  and  _344
REMARK  133  A    between atoms: _344  and  _345
REMARK                            x       y       z     vdW  Elec       q    Type
REMARK                         _______ _______ _______ _____ _____    ______ ____
ROOT
ATOM      1  CG  TYR A   1      10.921  -1.452  18.104  0.00  0.00    -0.020 A 
ATOM      2  CD2 TYR A   1      12.226  -1.961  18.132  0.00  0.00    -0.001 A 
ATOM      3  CE2 TYR A   1      12.487  -3.321  17.869  0.00  0.00    +0.036 A 
ATOM      4  CZ  TYR A   1      11.386  -4.081  17.634  0.00  0.00    +0.134 A 
ATOM      5  CE1 TYR A   1      10.141  -3.664  17.605  0.00  0.00    +0.036 A 
ATOM      6  CD1 TYR A   1       9.872  -2.309  17.883  0.00  0.00    -0.001 A 
ENDROOT
BRANCH   4   7
ATOM      7  OH  TYR A   1      11.568  -5.447  17.409  0.00  0.00    -0.506 OA
ATOM      8  HH  TYR A   1      11.999  -5.856  18.201  0.00  0.00    +0.292 HD
ENDBRANCH   4   7
BRANCH   1   9
ATOM      9  CB  TYR A   1      10.649   0.011  18.321  0.00  0.00    +0.051 C 
BRANCH   9  10
ATOM     10  CA  TYR A   1      10.413   0.805  16.992  0.00  0.00    +0.137 C 
BRANCH  10  11
ATOM     11  N   TYR A   1       9.243   0.254  16.277  0.00  0.00    -0.239 NA
ATOM     12  H   TYR A   1       9.420  -0.457  15.539  0.00  0.00    +0.142 HD
ENDBRANCH  10  11
BRANCH  10  13
ATOM     13  C   TYR A   1      11.618   0.662  16.112  0.00  0.00    +0.224 C 
ATOM     14  O   TYR A   1      11.671  -0.205  15.198  0.00  0.00    -0.287 OA
ENDBRANCH  10  13
ENDBRANCH   9  10
ENDBRANCH   1   9
TORSDOF 5
REMARK  Name = ../refined-set-2016/3arv/3arv_pocket.pdb
REMARK  133 active torsions:
REMARK  status: ('A' for Active; 'I' for Inactive)
REMARK    1  A    between atoms: _1  and  _3
REMARK    2  A    between atoms: _3  and  _4
REMARK    3  A    between atoms: _3  and  _6
REMARK    4  A    between atoms: _6  and  _7
REMARK    5  A    between atoms: _17  and  _19
REMARK    6  A    between atoms: _19  and  _20
REMARK    7  A    between atoms: _19  and  _22
REMARK    8  A    between atoms: _22  and  _23
REMARK    9  A    between atoms: _29  and  _31
REMARK   10  A    between atoms: _31  and  _32
REMARK   11  A    between atoms: _31  and  _34
REMARK   12  A    between atoms: _34  and  _35
REMARK   13  A    between atoms: _37  and  _39
REMARK   14  A    between atoms: _39  and  _40
REMARK   15  A    between atoms: _39  and  _42
REMARK   16  A    between atoms: _45  and  _47
REMARK   17  A    between atoms: _47  and  _48
REMARK   18  A    between atoms: _47  and  _50
REMARK   19  A    between atoms: _50  and  _51
REMARK   20  A    between atoms: _53  and  _55
REMARK   21  A    between atoms: _55  and  _56
REMARK   22  A    between atoms: _55  and  _58
REMARK   23  A    between atoms: _61  and  _63
REMARK   24  A    between atoms: _63  and  _64
REMARK   25  A    between atoms: _66  and  _68
REMARK   26  A    between atoms: _68  and  _69
REMARK   27  A    between atoms: _68  and  _71
REMARK   28  A    between atoms: _71  and  _72
REMARK   29  A    between atoms: _82  and  _84
REMARK   30  A    between atoms: _84  and  _85
REMARK   31  A    between atoms: _84  and  _87
REMARK   32  A    between atoms: _87  and  _88
REMARK   33  A    between atoms: _91  and  _93
REMARK   34  A    between atoms: _93  and  _94
REMARK   35  A    between atoms: _93  and  _96
REMARK   36  A    between atoms: _96  and  _97
REMARK   37  A    between atoms: _100  and  _102
REMARK   38  A    between atoms: _102  and  _103
REMARK   39  A    between atoms: _102  and  _105
REMARK   40  A    between atoms: _105  and  _106
REMARK   41  A    between atoms: _106  and  _107
REMARK   42  A    between atoms: _110  and  _112
REMARK   43  A    between atoms: _112  and  _113
REMARK   44  A    between atoms: _112  and  _115
REMARK   45  A    between atoms: _115  and  _116
REMARK   46  A    between atoms: _122  and  _124
REMARK   47  A    between atoms: _124  and  _125
REMARK   48  A    between atoms: _127  and  _129
REMARK   49  A    between atoms: _129  and  _130
REMARK   50  A    between atoms: _132  and  _134
REMARK   51  A    between atoms: _134  and  _135
REMARK   52  A    between atoms: _138  and  _140
REMARK   53  A    between atoms: _140  and  _141
REMARK   54  A    between atoms: _140  and  _143
REMARK   55  A    between atoms: _143  and  _144
REMARK   56  A    between atoms: _144  and  _145
REMARK   57  A    between atoms: _145  and  _146
REMARK   58  A    between atoms: _146  and  _147
REMARK   59  A    between atoms: _151  and  _153
REMARK   60  A    between atoms: _153  and  _154
REMARK   61  A    between atoms: _153  and  _156
REMARK   62  A    between atoms: _156  and  _157
REMARK   63  A    between atoms: _157  and  _158
REMARK   64  A    between atoms: _160  and  _162
REMARK   65  A    between atoms: _162  and  _163
REMARK   66  A    between atoms: _162  and  _165
REMARK   67  A    between atoms: _165  and  _166
REMARK   68  A    between atoms: _171  and  _172
REMARK   69  A    between atoms: _174  and  _176
REMARK   70  A    between atoms: _176  and  _177
REMARK   71  A    between atoms: _176  and  _179
REMARK   72  A    between atoms: _179  and  _180
REMARK   73  A    between atoms: _183  and  _185
REMARK   74  A    between atoms: _185  and  _186
REMARK   75  A    between atoms: _185  and  _188
REMARK   76  A    between atoms: _188  and  _189
REMARK   77  A    between atoms: _195  and  _197
REMARK   78  A    between atoms: _197  and  _198
REMARK   79  A    between atoms: _197  and  _200
REMARK   80  A    between atoms: _200  and  _201
REMARK   81  A    between atoms: _206  and  _207
REMARK   82  A    between atoms: _209  and  _211
REMARK   83  A    between atoms: _211  and  _212
REMARK   84  A    between atoms: _214  and  _216
REMARK   85  A    between atoms: _216  and  _217
REMARK   86  A    between atoms: _219  and  _221
REMARK   87  A    between atoms: _221  and  _222
REMARK   88  A    between atoms: _221  and  _224
REMARK   89  A    between atoms: _224  and  _225
REMARK   90  A    between atoms: _235  and  _237
REMARK   91  A    between atoms: _237  and  _238
REMARK   92  A    between atoms: _237  and  _240
REMARK   93  A    between atoms: _240  and  _241
REMARK   94  A    between atoms: _246  and  _248
REMARK   95  A    between atoms: _248  and  _249
REMARK   96  A    between atoms: _248  and  _251
REMARK   97  A    between atoms: _251  and  _252
REMARK   98  A    between atoms: _257  and  _258
REMARK   99  A    between atoms: _260  and  _262
REMARK  100  A    between atoms: _262  and  _263
REMARK  101  A    between atoms: _262  and  _265
REMARK  102  A    between atoms: _265  and  _266
REMARK  103  A    between atoms: _271  and  _272
REMARK  104  A    between atoms: _274  and  _276
REMARK  105  A    between atoms: _276  and  _277
REMARK  106  A    between atoms: _276  and  _279
REMARK  107  A    between atoms: _279  and  _280
REMARK  108  A    between atoms: _280  and  _281
REMARK  109  A    between atoms: _281  and  _282
REMARK  110  A    between atoms: _291  and  _293
REMARK  111  A    between atoms: _293  and  _294
REMARK  112  A    between atoms: _293  and  _296
REMARK  113  A    between atoms: _296  and  _297
REMARK  114  A    between atoms: _297  and  _298
REMARK  115  A    between atoms: _298  and  _299
REMARK  116  A    between atoms: _299  and  _300
REMARK  117  A    between atoms: _304  and  _306
REMARK  118  A    between atoms: _306  and  _307
REMARK  119  A    between atoms: _306  and  _309
REMARK  120  A    between atoms: _309  and  _310
REMARK  121  A    between atoms: _310  and  _311
REMARK  122  A    between atoms: _314  and  _316
REMARK  123  A    between atoms: _316  and  _317
REMARK  124  A    between atoms: _316  and  _319
REMARK  125  A    between atoms: _322  and  _324
REMARK  126  A    between atoms: _324  and  _325
REMARK  127  A    between atoms: _324  and  _327
REMARK  128  A    between atoms: _327  and  _328
REMARK  129  A    between atoms: _338  and  _340
REMARK  130  A    between atoms: _340  and  _341
REMARK  131  A    between atoms: _340  and  _343
REMARK  132  A    between atoms: _343  and  _344
REMARK  133  A    between atoms: _344  and  _345
REMARK                            x       y       z     vdW  Elec       q    Type
REMARK                         _______ _______ _______ _____ _____    ______ ____
ROOT
ATOM      1  NE  ARG A   1      15.930  -4.843  18.617  0.00  0.00    -0.265 N 
ATOM      2  CZ  ARG A   1      15.889  -4.915  19.927  0.00  0.00    +0.342 C 
ATOM      3  NH2 ARG A   1      16.819  -4.350  20.713  0.00  0.00    -0.292 N 
ATOM      4 HH21 ARG A   1      16.746  -4.433  21.747  0.00  0.00    +0.255 HD
ATOM      5 HH22 ARG A   1      17.613  -3.829  20.288  0.00  0.00    +0.255 HD
ATOM      6  NH1 ARG A   1      14.879  -5.629  20.483  0.00  0.00    -0.292 N 
ATOM      7 HH11 ARG A   1      14.809  -5.712  21.517  0.00  0.00    +0.255 HD
ATOM      8 HH12 ARG A   1      14.175  -6.094  19.875  0.00  0.00    +0.255 HD
ATOM      9  HE  ARG A   1      15.230  -5.381  18.066  0.00  0.00    +0.259 HD
ENDROOT
BRANCH   1  10
ATOM     10  CD  ARG A   1      16.924  -4.034  17.895  0.00  0.00    +0.174 C 
BRANCH  10  11
ATOM     11  CG  ARG A   1      16.450  -2.587  17.750  0.00  0.00    +0.045 C 
BRANCH  11  12
ATOM     12  CB  ARG A   1      17.532  -1.791  17.031  0.00  0.00    +0.029 C 
BRANCH  12  13
ATOM     13  CA  ARG A   1      17.212  -0.261  17.115  0.00  0.00    +0.133 C 
BRANCH  13  14
ATOM     14  N   ARG A   1      16.026   0.071  16.295  0.00  0.00    -0.239 NA
ATOM     15  H   ARG A   1      16.011  -0.161  15.281  0.00  0.00    +0.142 HD
ENDBRANCH  13  14
BRANCH  13  16
ATOM     16  C   ARG A   1      18.353   0.595  16.601  0.00  0.00    +0.224 C 
ATOM     17  O   ARG A   1      18.340   0.993  15.420  0.00  0.00    -0.287 OA
ENDBRANCH  13  16
ENDBRANCH  12  13
ENDBRANCH  11  12
ENDBRANCH  10  11
ENDBRANCH   1  10
TORSDOF 6
REMARK  Name = ../refined-set-2016/3arv/3arv_pocket.pdb
REMARK  133 active torsions:
REMARK  status: ('A' for Active; 'I' for Inactive)
REMARK    1  A    between atoms: _1  and  _3
REMARK    2  A    between atoms: _3  and  _4
REMARK    3  A    between atoms: _3  and  _6
REMARK    4  A    between atoms: _6  and  _7
REMARK    5  A    between atoms: _17  and  _19
REMARK    6  A    between atoms: _19  and  _20
REMARK    7  A    between atoms: _19  and  _22
REMARK    8  A    between atoms: _22  and  _23
REMARK    9  A    between atoms: _29  and  _31
REMARK   10  A    between atoms: _31  and  _32
REMARK   11  A    between atoms: _31  and  _34
REMARK   12  A    between atoms: _34  and  _35
REMARK   13  A    between atoms: _37  and  _39
REMARK   14  A    between atoms: _39  and  _40
REMARK   15  A    between atoms: _39  and  _42
REMARK   16  A    between atoms: _45  and  _47
REMARK   17  A    between atoms: _47  and  _48
REMARK   18  A    between atoms: _47  and  _50
REMARK   19  A    between atoms: _50  and  _51
REMARK   20  A    between atoms: _53  and  _55
REMARK   21  A    between atoms: _55  and  _56
REMARK   22  A    between atoms: _55  and  _58
REMARK   23  A    between atoms: _61  and  _63
REMARK   24  A    between atoms: _63  and  _64
REMARK   25  A    between atoms: _66  and  _68
REMARK   26  A    between atoms: _68  and  _69
REMARK   27  A    between atoms: _68  and  _71
REMARK   28  A    between atoms: _71  and  _72
REMARK   29  A    between atoms: _82  and  _84
REMARK   30  A    between atoms: _84  and  _85
REMARK   31  A    between atoms: _84  and  _87
REMARK   32  A    between atoms: _87  and  _88
REMARK   33  A    between atoms: _91  and  _93
REMARK   34  A    between atoms: _93  and  _94
REMARK   35  A    between atoms: _93  and  _96
REMARK   36  A    between atoms: _96  and  _97
REMARK   37  A    between atoms: _100  and  _102
REMARK   38  A    between atoms: _102  and  _103
REMARK   39  A    between atoms: _102  and  _105
REMARK   40  A    between atoms: _105  and  _106
REMARK   41  A    between atoms: _106  and  _107
REMARK   42  A    between atoms: _110  and  _112
REMARK   43  A    between atoms: _112  and  _113
REMARK   44  A    between atoms: _112  and  _115
REMARK   45  A    between atoms: _115  and  _116
REMARK   46  A    between atoms: _122  and  _124
REMARK   47  A    between atoms: _124  and  _125
REMARK   48  A    between atoms: _127  and  _129
REMARK   49  A    between atoms: _129  and  _130
REMARK   50  A    between atoms: _132  and  _134
REMARK   51  A    between atoms: _134  and  _135
REMARK   52  A    between atoms: _138  and  _140
REMARK   53  A    between atoms: _140  and  _141
REMARK   54  A    between atoms: _140  and  _143
REMARK   55  A    between atoms: _143  and  _144
REMARK   56  A    between atoms: _144  and  _145
REMARK   57  A    between atoms: _145  and  _146
REMARK   58  A    between atoms: _146  and  _147
REMARK   59  A    between atoms: _151  and  _153
REMARK   60  A    between atoms: _153  and  _154
REMARK   61  A    between atoms: _153  and  _156
REMARK   62  A    between atoms: _156  and  _157
REMARK   63  A    between atoms: _157  and  _158
REMARK   64  A    between atoms: _160  and  _162
REMARK   65  A    between atoms: _162  and  _163
REMARK   66  A    between atoms: _162  and  _165
REMARK   67  A    between atoms: _165  and  _166
REMARK   68  A    between atoms: _171  and  _172
REMARK   69  A    between atoms: _174  and  _176
REMARK   70  A    between atoms: _176  and  _177
REMARK   71  A    between atoms: _176  and  _179
REMARK   72  A    between atoms: _179  and  _180
REMARK   73  A    between atoms: _183  and  _185
REMARK   74  A    between atoms: _185  and  _186
REMARK   75  A    between atoms: _185  and  _188
REMARK   76  A    between atoms: _188  and  _189
REMARK   77  A    between atoms: _195  and  _197
REMARK   78  A    between atoms: _197  and  _198
REMARK   79  A    between atoms: _197  and  _200
REMARK   80  A    between atoms: _200  and  _201
REMARK   81  A    between atoms: _206  and  _207
REMARK   82  A    between atoms: _209  and  _211
REMARK   83  A    between atoms: _211  and  _212
REMARK   84  A    between atoms: _214  and  _216
REMARK   85  A    between atoms: _216  and  _217
REMARK   86  A    between atoms: _219  and  _221
REMARK   87  A    between atoms: _221  and  _222
REMARK   88  A    between atoms: _221  and  _224
REMARK   89  A    between atoms: _224  and  _225
REMARK   90  A    between atoms: _235  and  _237
REMARK   91  A    between atoms: _237  and  _238
REMARK   92  A    between atoms: _237  and  _240
REMARK   93  A    between atoms: _240  and  _241
REMARK   94  A    between atoms: _246  and  _248
REMARK   95  A    between atoms: _248  and  _249
REMARK   96  A    between atoms: _248  and  _251
REMARK   97  A    between atoms: _251  and  _252
REMARK   98  A    between atoms: _257  and  _258
REMARK   99  A    between atoms: _260  and  _262
REMARK  100  A    between atoms: _262  and  _263
REMARK  101  A    between atoms: _262  and  _265
REMARK  102  A    between atoms: _265  and  _266
REMARK  103  A    between atoms: _271  and  _272
REMARK  104  A    between atoms: _274  and  _276
REMARK  105  A    between atoms: _276  and  _277
REMARK  106  A    between atoms: _276  and  _279
REMARK  107  A    between atoms: _279  and  _280
REMARK  108  A    between atoms: _280  and  _281
REMARK  109  A    between atoms: _281  and  _282
REMARK  110  A    between atoms: _291  and  _293
REMARK  111  A    between atoms: _293  and  _294
REMARK  112  A    between atoms: _293  and  _296
REMARK  113  A    between atoms: _296  and  _297
REMARK  114  A    between atoms: _297  and  _298
REMARK  115  A    between atoms: _298  and  _299
REMARK  116  A    between atoms: _299  and  _300
REMARK  117  A    between atoms: _304  and  _306
REMARK  118  A    between atoms: _306  and  _307
REMARK  119  A    between atoms: _306  and  _309
REMARK  120  A    between atoms: _309  and  _310
REMARK  121  A    between atoms: _310  and  _311
REMARK  122  A    between atoms: _314  and  _316
REMARK  123  A    between atoms: _316  and  _317
REMARK  124  A    between atoms: _316  and  _319
REMARK  125  A    between atoms: _322  and  _324
REMARK  126  A    between atoms: _324  and  _325
REMARK  127  A    between atoms: _324  and  _327
REMARK  128  A    between atoms: _327  and  _328
REMARK  129  A    between atoms: _338  and  _340
REMARK  130  A    between atoms: _340  and  _341
REMARK  131  A    between atoms: _340  and  _343
REMARK  132  A    between atoms: _343  and  _344
REMARK  133  A    between atoms: _344  and  _345
REMARK                            x       y       z     vdW  Elec       q    Type
REMARK                         _______ _______ _______ _____ _____    ______ ____
ROOT
ATOM      1  CG  LYS A   1      23.574  -0.421  23.006  0.00  0.00    -0.000 C 
ENDROOT
BRANCH   1   2
ATOM      2  CB  LYS A   1      23.400   1.056  22.892  0.00  0.00    +0.025 C 
BRANCH   2   3
ATOM      3  CA  LYS A   1      24.143   1.634  21.687  0.00  0.00    +0.133 C 
BRANCH   3   4
ATOM      4  N   LYS A   1      25.609   1.539  21.938  0.00  0.00    -0.239 NA
ATOM      5  H   LYS A   1      25.949   1.364  22.905  0.00  0.00    +0.142 HD
ENDBRANCH   3   4
BRANCH   3   6
ATOM      6  C   LYS A   1      23.687   3.111  21.573  0.00  0.00    +0.224 C 
ATOM      7  O   LYS A   1      24.250   4.027  22.222  0.00  0.00    -0.287 OA
ENDBRANCH   3   6
ENDBRANCH   2   3
ENDBRANCH   1   2
BRANCH   1   8
ATOM      8  CD  LYS A   1      22.955  -0.932  24.285  0.00  0.00    -0.024 C 
BRANCH   8   9
ATOM      9  CE  LYS A   1      23.218  -2.477  24.448  0.00  0.00    -0.086 C 
BRANCH   9  10
ATOM     10  NZ  LYS A   1      22.566  -2.893  25.773  0.00  0.00    +0.380 N 
ATOM     11  HZ1 LYS A   1      22.997  -2.358  26.553  0.00  0.00    -0.089 HD
ATOM     12  HZ2 LYS A   1      22.714  -3.911  25.926  0.00  0.00    -0.089 HD
ATOM     13  HZ3 LYS A   1      21.546  -2.691  25.735  0.00  0.00    -0.089 HD
ENDBRANCH   9  10
ENDBRANCH   8   9
ENDBRANCH   1   8
TORSDOF 7
REMARK  Name = ../refined-set-2016/3arv/3arv_pocket.pdb
REMARK  133 active torsions:
REMARK  status: ('A' for Active; 'I' for Inactive)
REMARK    1  A    between atoms: _1  and  _3
REMARK    2  A    between atoms: _3  and  _4
REMARK    3  A    between atoms: _3  and  _6
REMARK    4  A    between atoms: _6  and  _7
REMARK    5  A    between atoms: _17  and  _19
REMARK    6  A    between atoms: _19  and  _20
REMARK    7  A    between atoms: _19  and  _22
REMARK    8  A    between atoms: _22  and  _23
REMARK    9  A    between atoms: _29  and  _31
REMARK   10  A    between atoms: _31  and  _32
REMARK   11  A    between atoms: _31  and  _34
REMARK   12  A    between atoms: _34  and  _35
REMARK   13  A    between atoms: _37  and  _39
REMARK   14  A    between atoms: _39  and  _40
REMARK   15  A    between atoms: _39  and  _42
REMARK   16  A    between atoms: _45  and  _47
REMARK   17  A    between atoms: _47  and  _48
REMARK   18  A    between atoms: _47  and  _50
REMARK   19  A    between atoms: _50  and  _51
REMARK   20  A    between atoms: _53  and  _55
REMARK   21  A    between atoms: _55  and  _56
REMARK   22  A    between atoms: _55  and  _58
REMARK   23  A    between atoms: _61  and  _63
REMARK   24  A    between atoms: _63  and  _64
REMARK   25  A    between atoms: _66  and  _68
REMARK   26  A    between atoms: _68  and  _69
REMARK   27  A    between atoms: _68  and  _71
REMARK   28  A    between atoms: _71  and  _72
REMARK   29  A    between atoms: _82  and  _84
REMARK   30  A    between atoms: _84  and  _85
REMARK   31  A    between atoms: _84  and  _87
REMARK   32  A    between atoms: _87  and  _88
REMARK   33  A    between atoms: _91  and  _93
REMARK   34  A    between atoms: _93  and  _94
REMARK   35  A    between atoms: _93  and  _96
REMARK   36  A    between atoms: _96  and  _97
REMARK   37  A    between atoms: _100  and  _102
REMARK   38  A    between atoms: _102  and  _103
REMARK   39  A    between atoms: _102  and  _105
REMARK   40  A    between atoms: _105  and  _106
REMARK   41  A    between atoms: _106  and  _107
REMARK   42  A    between atoms: _110  and  _112
REMARK   43  A    between atoms: _112  and  _113
REMARK   44  A    between atoms: _112  and  _115
REMARK   45  A    between atoms: _115  and  _116
REMARK   46  A    between atoms: _122  and  _124
REMARK   47  A    between atoms: _124  and  _125
REMARK   48  A    between atoms: _127  and  _129
REMARK   49  A    between atoms: _129  and  _130
REMARK   50  A    between atoms: _132  and  _134
REMARK   51  A    between atoms: _134  and  _135
REMARK   52  A    between atoms: _138  and  _140
REMARK   53  A    between atoms: _140  and  _141
REMARK   54  A    between atoms: _140  and  _143
REMARK   55  A    between atoms: _143  and  _144
REMARK   56  A    between atoms: _144  and  _145
REMARK   57  A    between atoms: _145  and  _146
REMARK   58  A    between atoms: _146  and  _147
REMARK   59  A    between atoms: _151  and  _153
REMARK   60  A    between atoms: _153  and  _154
REMARK   61  A    between atoms: _153  and  _156
REMARK   62  A    between atoms: _156  and  _157
REMARK   63  A    between atoms: _157  and  _158
REMARK   64  A    between atoms: _160  and  _162
REMARK   65  A    between atoms: _162  and  _163
REMARK   66  A    between atoms: _162  and  _165
REMARK   67  A    between atoms: _165  and  _166
REMARK   68  A    between atoms: _171  and  _172
REMARK   69  A    between atoms: _174  and  _176
REMARK   70  A    between atoms: _176  and  _177
REMARK   71  A    between atoms: _176  and  _179
REMARK   72  A    between atoms: _179  and  _180
REMARK   73  A    between atoms: _183  and  _185
REMARK   74  A    between atoms: _185  and  _186
REMARK   75  A    between atoms: _185  and  _188
REMARK   76  A    between atoms: _188  and  _189
REMARK   77  A    between atoms: _195  and  _197
REMARK   78  A    between atoms: _197  and  _198
REMARK   79  A    between atoms: _197  and  _200
REMARK   80  A    between atoms: _200  and  _201
REMARK   81  A    between atoms: _206  and  _207
REMARK   82  A    between atoms: _209  and  _211
REMARK   83  A    between atoms: _211  and  _212
REMARK   84  A    between atoms: _214  and  _216
REMARK   85  A    between atoms: _216  and  _217
REMARK   86  A    between atoms: _219  and  _221
REMARK   87  A    between atoms: _221  and  _222
REMARK   88  A    between atoms: _221  and  _224
REMARK   89  A    between atoms: _224  and  _225
REMARK   90  A    between atoms: _235  and  _237
REMARK   91  A    between atoms: _237  and  _238
REMARK   92  A    between atoms: _237  and  _240
REMARK   93  A    between atoms: _240  and  _241
REMARK   94  A    between atoms: _246  and  _248
REMARK   95  A    between atoms: _248  and  _249
REMARK   96  A    between atoms: _248  and  _251
REMARK   97  A    between atoms: _251  and  _252
REMARK   98  A    between atoms: _257  and  _258
REMARK   99  A    between atoms: _260  and  _262
REMARK  100  A    between atoms: _262  and  _263
REMARK  101  A    between atoms: _262  and  _265
REMARK  102  A    between atoms: _265  and  _266
REMARK  103  A    between atoms: _271  and  _272
REMARK  104  A    between atoms: _274  and  _276
REMARK  105  A    between atoms: _276  and  _277
REMARK  106  A    between atoms: _276  and  _279
REMARK  107  A    between atoms: _279  and  _280
REMARK  108  A    between atoms: _280  and  _281
REMARK  109  A    between atoms: _281  and  _282
REMARK  110  A    between atoms: _291  and  _293
REMARK  111  A    between atoms: _293  and  _294
REMARK  112  A    between atoms: _293  and  _296
REMARK  113  A    between atoms: _296  and  _297
REMARK  114  A    between atoms: _297  and  _298
REMARK  115  A    between atoms: _298  and  _299
REMARK  116  A    between atoms: _299  and  _300
REMARK  117  A    between atoms: _304  and  _306
REMARK  118  A    between atoms: _306  and  _307
REMARK  119  A    between atoms: _306  and  _309
REMARK  120  A    between atoms: _309  and  _310
REMARK  121  A    between atoms: _310  and  _311
REMARK  122  A    between atoms: _314  and  _316
REMARK  123  A    between atoms: _316  and  _317
REMARK  124  A    between atoms: _316  and  _319
REMARK  125  A    between atoms: _322  and  _324
REMARK  126  A    between atoms: _324  and  _325
REMARK  127  A    between atoms: _324  and  _327
REMARK  128  A    between atoms: _327  and  _328
REMARK  129  A    between atoms: _338  and  _340
REMARK  130  A    between atoms: _340  and  _341
REMARK  131  A    between atoms: _340  and  _343
REMARK  132  A    between atoms: _343  and  _344
REMARK  133  A    between atoms: _344  and  _345
REMARK                            x       y       z     vdW  Elec       q    Type
REMARK                         _______ _______ _______ _____ _____    ______ ____
ROOT
ATOM      1  CA  GLU A   1      16.275   1.197  27.079  0.00  0.00    +0.102 C 
ENDROOT
BRANCH   1   2
ATOM      2  N   GLU A   1      15.106   2.029  26.818  0.00  0.00    -0.244 NA
ATOM      3  H   GLU A   1      14.927   2.306  25.832  0.00  0.00    +0.141 HD
ENDBRANCH   1   2
BRANCH   1   4
ATOM      4  C   GLU A   1      17.327   1.604  26.062  0.00  0.00    +0.199 C 
ATOM      5  O   GLU A   1      16.946   1.892  24.858  0.00  0.00    -0.219 OA
ENDBRANCH   1   4
BRANCH   1   6
ATOM      6  CB  GLU A   1      15.798  -0.248  26.898  0.00  0.00    +0.032 C 
BRANCH   6   7
ATOM      7  CG  GLU A   1      16.837  -1.268  26.641  0.00  0.00    +0.116 C 
BRANCH   7   8
ATOM      8  CD  GLU A   1      16.397  -2.671  26.984  0.00  0.00    +0.365 C 
ATOM      9  OE2 GLU A   1      17.284  -3.530  27.178  0.00  0.00    -0.246 OA
ATOM     10  OE1 GLU A   1      15.168  -2.906  27.043  0.00  0.00    -0.246 OA
ENDBRANCH   7   8
ENDBRANCH   6   7
ENDBRANCH   1   6
TORSDOF 5
REMARK  Name = ../refined-set-2016/3arv/3arv_pocket.pdb
REMARK  133 active torsions:
REMARK  status: ('A' for Active; 'I' for Inactive)
REMARK    1  A    between atoms: _1  and  _3
REMARK    2  A    between atoms: _3  and  _4
REMARK    3  A    between atoms: _3  and  _6
REMARK    4  A    between atoms: _6  and  _7
REMARK    5  A    between atoms: _17  and  _19
REMARK    6  A    between atoms: _19  and  _20
REMARK    7  A    between atoms: _19  and  _22
REMARK    8  A    between atoms: _22  and  _23
REMARK    9  A    between atoms: _29  and  _31
REMARK   10  A    between atoms: _31  and  _32
REMARK   11  A    between atoms: _31  and  _34
REMARK   12  A    between atoms: _34  and  _35
REMARK   13  A    between atoms: _37  and  _39
REMARK   14  A    between atoms: _39  and  _40
REMARK   15  A    between atoms: _39  and  _42
REMARK   16  A    between atoms: _45  and  _47
REMARK   17  A    between atoms: _47  and  _48
REMARK   18  A    between atoms: _47  and  _50
REMARK   19  A    between atoms: _50  and  _51
REMARK   20  A    between atoms: _53  and  _55
REMARK   21  A    between atoms: _55  and  _56
REMARK   22  A    between atoms: _55  and  _58
REMARK   23  A    between atoms: _61  and  _63
REMARK   24  A    between atoms: _63  and  _64
REMARK   25  A    between atoms: _66  and  _68
REMARK   26  A    between atoms: _68  and  _69
REMARK   27  A    between atoms: _68  and  _71
REMARK   28  A    between atoms: _71  and  _72
REMARK   29  A    between atoms: _82  and  _84
REMARK   30  A    between atoms: _84  and  _85
REMARK   31  A    between atoms: _84  and  _87
REMARK   32  A    between atoms: _87  and  _88
REMARK   33  A    between atoms: _91  and  _93
REMARK   34  A    between atoms: _93  and  _94
REMARK   35  A    between atoms: _93  and  _96
REMARK   36  A    between atoms: _96  and  _97
REMARK   37  A    between atoms: _100  and  _102
REMARK   38  A    between atoms: _102  and  _103
REMARK   39  A    between atoms: _102  and  _105
REMARK   40  A    between atoms: _105  and  _106
REMARK   41  A    between atoms: _106  and  _107
REMARK   42  A    between atoms: _110  and  _112
REMARK   43  A    between atoms: _112  and  _113
REMARK   44  A    between atoms: _112  and  _115
REMARK   45  A    between atoms: _115  and  _116
REMARK   46  A    between atoms: _122  and  _124
REMARK   47  A    between atoms: _124  and  _125
REMARK   48  A    between atoms: _127  and  _129
REMARK   49  A    between atoms: _129  and  _130
REMARK   50  A    between atoms: _132  and  _134
REMARK   51  A    between atoms: _134  and  _135
REMARK   52  A    between atoms: _138  and  _140
REMARK   53  A    between atoms: _140  and  _141
REMARK   54  A    between atoms: _140  and  _143
REMARK   55  A    between atoms: _143  and  _144
REMARK   56  A    between atoms: _144  and  _145
REMARK   57  A    between atoms: _145  and  _146
REMARK   58  A    between atoms: _146  and  _147
REMARK   59  A    between atoms: _151  and  _153
REMARK   60  A    between atoms: _153  and  _154
REMARK   61  A    between atoms: _153  and  _156
REMARK   62  A    between atoms: _156  and  _157
REMARK   63  A    between atoms: _157  and  _158
REMARK   64  A    between atoms: _160  and  _162
REMARK   65  A    between atoms: _162  and  _163
REMARK   66  A    between atoms: _162  and  _165
REMARK   67  A    between atoms: _165  and  _166
REMARK   68  A    between atoms: _171  and  _172
REMARK   69  A    between atoms: _174  and  _176
REMARK   70  A    between atoms: _176  and  _177
REMARK   71  A    between atoms: _176  and  _179
REMARK   72  A    between atoms: _179  and  _180
REMARK   73  A    between atoms: _183  and  _185
REMARK   74  A    between atoms: _185  and  _186
REMARK   75  A    between atoms: _185  and  _188
REMARK   76  A    between atoms: _188  and  _189
REMARK   77  A    between atoms: _195  and  _197
REMARK   78  A    between atoms: _197  and  _198
REMARK   79  A    between atoms: _197  and  _200
REMARK   80  A    between atoms: _200  and  _201
REMARK   81  A    between atoms: _206  and  _207
REMARK   82  A    between atoms: _209  and  _211
REMARK   83  A    between atoms: _211  and  _212
REMARK   84  A    between atoms: _214  and  _216
REMARK   85  A    between atoms: _216  and  _217
REMARK   86  A    between atoms: _219  and  _221
REMARK   87  A    between atoms: _221  and  _222
REMARK   88  A    between atoms: _221  and  _224
REMARK   89  A    between atoms: _224  and  _225
REMARK   90  A    between atoms: _235  and  _237
REMARK   91  A    between atoms: _237  and  _238
REMARK   92  A    between atoms: _237  and  _240
REMARK   93  A    between atoms: _240  and  _241
REMARK   94  A    between atoms: _246  and  _248
REMARK   95  A    between atoms: _248  and  _249
REMARK   96  A    between atoms: _248  and  _251
REMARK   97  A    between atoms: _251  and  _252
REMARK   98  A    between atoms: _257  and  _258
REMARK   99  A    between atoms: _260  and  _262
REMARK  100  A    between atoms: _262  and  _263
REMARK  101  A    between atoms: _262  and  _265
REMARK  102  A    between atoms: _265  and  _266
REMARK  103  A    between atoms: _271  and  _272
REMARK  104  A    between atoms: _274  and  _276
REMARK  105  A    between atoms: _276  and  _277
REMARK  106  A    between atoms: _276  and  _279
REMARK  107  A    between atoms: _279  and  _280
REMARK  108  A    between atoms: _280  and  _281
REMARK  109  A    between atoms: _281  and  _282
REMARK  110  A    between atoms: _291  and  _293
REMARK  111  A    between atoms: _293  and  _294
REMARK  112  A    between atoms: _293  and  _296
REMARK  113  A    between atoms: _296  and  _297
REMARK  114  A    between atoms: _297  and  _298
REMARK  115  A    between atoms: _298  and  _299
REMARK  116  A    between atoms: _299  and  _300
REMARK  117  A    between atoms: _304  and  _306
REMARK  118  A    between atoms: _306  and  _307
REMARK  119  A    between atoms: _306  and  _309
REMARK  120  A    between atoms: _309  and  _310
REMARK  121  A    between atoms: _310  and  _311
REMARK  122  A    between atoms: _314  and  _316
REMARK  123  A    between atoms: _316  and  _317
REMARK  124  A    between atoms: _316  and  _319
REMARK  125  A    between atoms: _322  and  _324
REMARK  126  A    between atoms: _324  and  _325
REMARK  127  A    between atoms: _324  and  _327
REMARK  128  A    between atoms: _327  and  _328
REMARK  129  A    between atoms: _338  and  _340
REMARK  130  A    between atoms: _340  and  _341
REMARK  131  A    between atoms: _340  and  _343
REMARK  132  A    between atoms: _343  and  _344
REMARK  133  A    between atoms: _344  and  _345
REMARK                            x       y       z     vdW  Elec       q    Type
REMARK                         _______ _______ _______ _____ _____    ______ ____
ROOT
ATOM      1  CA  VAL A   1      15.845   0.892  21.254  0.00  0.00    +0.133 C 
ENDROOT
BRANCH   1   2
ATOM      2  CB  VAL A   1      15.180  -0.110  22.123  0.00  0.00    +0.023 C 
ATOM      3  CG2 VAL A   1      16.053  -1.378  22.312  0.00  0.00    +0.002 C 
ATOM      4  CG1 VAL A   1      13.820  -0.545  21.470  0.00  0.00    +0.002 C 
ENDBRANCH   1   2
BRANCH   1   5
ATOM      5  N   VAL A   1      17.223   1.236  21.773  0.00  0.00    -0.239 NA
ATOM      6  H   VAL A   1      17.335   1.856  22.601  0.00  0.00    +0.142 HD
ENDBRANCH   1   5
BRANCH   1   7
ATOM      7  C   VAL A   1      15.094   2.235  21.369  0.00  0.00    +0.224 C 
ATOM      8  O   VAL A   1      15.128   2.949  22.389  0.00  0.00    -0.287 OA
ENDBRANCH   1   7
TORSDOF 3
REMARK  Name = ../refined-set-2016/3arv/3arv_pocket.pdb
REMARK  133 active torsions:
REMARK  status: ('A' for Active; 'I' for Inactive)
REMARK    1  A    between atoms: _1  and  _3
REMARK    2  A    between atoms: _3  and  _4
REMARK    3  A    between atoms: _3  and  _6
REMARK    4  A    between atoms: _6  and  _7
REMARK    5  A    between atoms: _17  and  _19
REMARK    6  A    between atoms: _19  and  _20
REMARK    7  A    between atoms: _19  and  _22
REMARK    8  A    between atoms: _22  and  _23
REMARK    9  A    between atoms: _29  and  _31
REMARK   10  A    between atoms: _31  and  _32
REMARK   11  A    between atoms: _31  and  _34
REMARK   12  A    between atoms: _34  and  _35
REMARK   13  A    between atoms: _37  and  _39
REMARK   14  A    between atoms: _39  and  _40
REMARK   15  A    between atoms: _39  and  _42
REMARK   16  A    between atoms: _45  and  _47
REMARK   17  A    between atoms: _47  and  _48
REMARK   18  A    between atoms: _47  and  _50
REMARK   19  A    between atoms: _50  and  _51
REMARK   20  A    between atoms: _53  and  _55
REMARK   21  A    between atoms: _55  and  _56
REMARK   22  A    between atoms: _55  and  _58
REMARK   23  A    between atoms: _61  and  _63
REMARK   24  A    between atoms: _63  and  _64
REMARK   25  A    between atoms: _66  and  _68
REMARK   26  A    between atoms: _68  and  _69
REMARK   27  A    between atoms: _68  and  _71
REMARK   28  A    between atoms: _71  and  _72
REMARK   29  A    between atoms: _82  and  _84
REMARK   30  A    between atoms: _84  and  _85
REMARK   31  A    between atoms: _84  and  _87
REMARK   32  A    between atoms: _87  and  _88
REMARK   33  A    between atoms: _91  and  _93
REMARK   34  A    between atoms: _93  and  _94
REMARK   35  A    between atoms: _93  and  _96
REMARK   36  A    between atoms: _96  and  _97
REMARK   37  A    between atoms: _100  and  _102
REMARK   38  A    between atoms: _102  and  _103
REMARK   39  A    between atoms: _102  and  _105
REMARK   40  A    between atoms: _105  and  _106
REMARK   41  A    between atoms: _106  and  _107
REMARK   42  A    between atoms: _110  and  _112
REMARK   43  A    between atoms: _112  and  _113
REMARK   44  A    between atoms: _112  and  _115
REMARK   45  A    between atoms: _115  and  _116
REMARK   46  A    between atoms: _122  and  _124
REMARK   47  A    between atoms: _124  and  _125
REMARK   48  A    between atoms: _127  and  _129
REMARK   49  A    between atoms: _129  and  _130
REMARK   50  A    between atoms: _132  and  _134
REMARK   51  A    between atoms: _134  and  _135
REMARK   52  A    between atoms: _138  and  _140
REMARK   53  A    between atoms: _140  and  _141
REMARK   54  A    between atoms: _140  and  _143
REMARK   55  A    between atoms: _143  and  _144
REMARK   56  A    between atoms: _144  and  _145
REMARK   57  A    between atoms: _145  and  _146
REMARK   58  A    between atoms: _146  and  _147
REMARK   59  A    between atoms: _151  and  _153
REMARK   60  A    between atoms: _153  and  _154
REMARK   61  A    between atoms: _153  and  _156
REMARK   62  A    between atoms: _156  and  _157
REMARK   63  A    between atoms: _157  and  _158
REMARK   64  A    between atoms: _160  and  _162
REMARK   65  A    between atoms: _162  and  _163
REMARK   66  A    between atoms: _162  and  _165
REMARK   67  A    between atoms: _165  and  _166
REMARK   68  A    between atoms: _171  and  _172
REMARK   69  A    between atoms: _174  and  _176
REMARK   70  A    between atoms: _176  and  _177
REMARK   71  A    between atoms: _176  and  _179
REMARK   72  A    between atoms: _179  and  _180
REMARK   73  A    between atoms: _183  and  _185
REMARK   74  A    between atoms: _185  and  _186
REMARK   75  A    between atoms: _185  and  _188
REMARK   76  A    between atoms: _188  and  _189
REMARK   77  A    between atoms: _195  and  _197
REMARK   78  A    between atoms: _197  and  _198
REMARK   79  A    between atoms: _197  and  _200
REMARK   80  A    between atoms: _200  and  _201
REMARK   81  A    between atoms: _206  and  _207
REMARK   82  A    between atoms: _209  and  _211
REMARK   83  A    between atoms: _211  and  _212
REMARK   84  A    between atoms: _214  and  _216
REMARK   85  A    between atoms: _216  and  _217
REMARK   86  A    between atoms: _219  and  _221
REMARK   87  A    between atoms: _221  and  _222
REMARK   88  A    between atoms: _221  and  _224
REMARK   89  A    between atoms: _224  and  _225
REMARK   90  A    between atoms: _235  and  _237
REMARK   91  A    between atoms: _237  and  _238
REMARK   92  A    between atoms: _237  and  _240
REMARK   93  A    between atoms: _240  and  _241
REMARK   94  A    between atoms: _246  and  _248
REMARK   95  A    between atoms: _248  and  _249
REMARK   96  A    between atoms: _248  and  _251
REMARK   97  A    between atoms: _251  and  _252
REMARK   98  A    between atoms: _257  and  _258
REMARK   99  A    between atoms: _260  and  _262
REMARK  100  A    between atoms: _262  and  _263
REMARK  101  A    between atoms: _262  and  _265
REMARK  102  A    between atoms: _265  and  _266
REMARK  103  A    between atoms: _271  and  _272
REMARK  104  A    between atoms: _274  and  _276
REMARK  105  A    between atoms: _276  and  _277
REMARK  106  A    between atoms: _276  and  _279
REMARK  107  A    between atoms: _279  and  _280
REMARK  108  A    between atoms: _280  and  _281
REMARK  109  A    between atoms: _281  and  _282
REMARK  110  A    between atoms: _291  and  _293
REMARK  111  A    between atoms: _293  and  _294
REMARK  112  A    between atoms: _293  and  _296
REMARK  113  A    between atoms: _296  and  _297
REMARK  114  A    between atoms: _297  and  _298
REMARK  115  A    between atoms: _298  and  _299
REMARK  116  A    between atoms: _299  and  _300
REMARK  117  A    between atoms: _304  and  _306
REMARK  118  A    between atoms: _306  and  _307
REMARK  119  A    between atoms: _306  and  _309
REMARK  120  A    between atoms: _309  and  _310
REMARK  121  A    between atoms: _310  and  _311
REMARK  122  A    between atoms: _314  and  _316
REMARK  123  A    between atoms: _316  and  _317
REMARK  124  A    between atoms: _316  and  _319
REMARK  125  A    between atoms: _322  and  _324
REMARK  126  A    between atoms: _324  and  _325
REMARK  127  A    between atoms: _324  and  _327
REMARK  128  A    between atoms: _327  and  _328
REMARK  129  A    between atoms: _338  and  _340
REMARK  130  A    between atoms: _340  and  _341
REMARK  131  A    between atoms: _340  and  _343
REMARK  132  A    between atoms: _343  and  _344
REMARK  133  A    between atoms: _344  and  _345
REMARK                            x       y       z     vdW  Elec       q    Type
REMARK                         _______ _______ _______ _____ _____    ______ ____
ROOT
ATOM      1  CA  TRP A   1       5.324  -5.031  18.218  0.00  0.00    +0.149 C 
ENDROOT
BRANCH   1   2
ATOM      2  C   TRP A   1       5.809  -3.569  18.236  0.00  0.00    +0.239 C 
ATOM      3  N   GLU A   2       5.412  -2.717  19.200  0.00  0.00    -0.298 N 
ATOM      4  H   GLU A   2       5.967  -1.840  19.268  0.00  0.00    +0.150 HD
ATOM      5  O   TRP A   1       6.654  -3.195  17.436  0.00  0.00    -0.274 OA
BRANCH   3   6
ATOM      6  CA  GLU A   2       4.314  -2.835  20.172  0.00  0.00    +0.137 C 
BRANCH   6   7
ATOM      7  C   GLU A   2       3.441  -1.568  19.988  0.00  0.00    +0.227 C 
ATOM      8  O   GLU A   2       3.991  -0.496  19.663  0.00  0.00    -0.286 OA
ENDBRANCH   6   7
BRANCH   6   9
ATOM      9  CB  GLU A   2       4.862  -2.942  21.653  0.00  0.00    +0.039 C 
BRANCH   9  10
ATOM     10  CG  GLU A   2       5.824  -1.737  21.987  0.00  0.00    +0.116 C 
BRANCH  10  11
ATOM     11  CD  GLU A   2       6.461  -1.865  23.389  0.00  0.00    +0.365 C 
ATOM     12  OE2 GLU A   2       5.805  -1.562  24.388  0.00  0.00    -0.246 OA
ATOM     13  OE1 GLU A   2       7.568  -2.421  23.476  0.00  0.00    -0.246 OA
ENDBRANCH  10  11
ENDBRANCH   9  10
ENDBRANCH   6   9
ENDBRANCH   3   6
ENDBRANCH   1   2
BRANCH   1  14
ATOM     14  N   TRP A   1       4.873  -5.322  16.842  0.00  0.00    -0.238 NA
ATOM     15  H   TRP A   1       5.582  -5.357  16.082  0.00  0.00    +0.142 HD
ENDBRANCH   1  14
BRANCH   1  16
ATOM     16  CB  TRP A   1       6.544  -5.968  18.606  0.00  0.00    +0.054 C 
BRANCH  16  17
ATOM     17  CG  TRP A   1       7.087  -5.631  19.914  0.00  0.00    -0.002 A 
ATOM     18  CD2 TRP A   1       6.705  -6.155  21.201  0.00  0.00    +0.013 A 
ATOM     19  CE2 TRP A   1       7.497  -5.500  22.171  0.00  0.00    +0.056 A 
ATOM     20  CZ2 TRP A   1       7.336  -5.767  23.588  0.00  0.00    +0.017 A 
ATOM     21  CH2 TRP A   1       6.443  -6.669  23.946  0.00  0.00    +0.001 A 
ATOM     22  CZ3 TRP A   1       5.645  -7.360  23.001  0.00  0.00    +0.000 A 
ATOM     23  NE1 TRP A   1       8.308  -4.626  21.505  0.00  0.00    -0.352 N 
ATOM     24  HE1 TRP A   1       8.996  -3.990  21.956  0.00  0.00    +0.166 HD
ATOM     25  CE3 TRP A   1       5.786  -7.130  21.619  0.00  0.00    +0.001 A 
ATOM     26  CD1 TRP A   1       8.082  -4.709  20.152  0.00  0.00    +0.068 A 
ENDBRANCH  16  17
ENDBRANCH   1  16
TORSDOF 9
REMARK  Name = ../refined-set-2016/3arv/3arv_pocket.pdb
REMARK  133 active torsions:
REMARK  status: ('A' for Active; 'I' for Inactive)
REMARK    1  A    between atoms: _1  and  _3
REMARK    2  A    between atoms: _3  and  _4
REMARK    3  A    between atoms: _3  and  _6
REMARK    4  A    between atoms: _6  and  _7
REMARK    5  A    between atoms: _17  and  _19
REMARK    6  A    between atoms: _19  and  _20
REMARK    7  A    between atoms: _19  and  _22
REMARK    8  A    between atoms: _22  and  _23
REMARK    9  A    between atoms: _29  and  _31
REMARK   10  A    between atoms: _31  and  _32
REMARK   11  A    between atoms: _31  and  _34
REMARK   12  A    between atoms: _34  and  _35
REMARK   13  A    between atoms: _37  and  _39
REMARK   14  A    between atoms: _39  and  _40
REMARK   15  A    between atoms: _39  and  _42
REMARK   16  A    between atoms: _45  and  _47
REMARK   17  A    between atoms: _47  and  _48
REMARK   18  A    between atoms: _47  and  _50
REMARK   19  A    between atoms: _50  and  _51
REMARK   20  A    between atoms: _53  and  _55
REMARK   21  A    between atoms: _55  and  _56
REMARK   22  A    between atoms: _55  and  _58
REMARK   23  A    between atoms: _61  and  _63
REMARK   24  A    between atoms: _63  and  _64
REMARK   25  A    between atoms: _66  and  _68
REMARK   26  A    between atoms: _68  and  _69
REMARK   27  A    between atoms: _68  and  _71
REMARK   28  A    between atoms: _71  and  _72
REMARK   29  A    between atoms: _82  and  _84
REMARK   30  A    between atoms: _84  and  _85
REMARK   31  A    between atoms: _84  and  _87
REMARK   32  A    between atoms: _87  and  _88
REMARK   33  A    between atoms: _91  and  _93
REMARK   34  A    between atoms: _93  and  _94
REMARK   35  A    between atoms: _93  and  _96
REMARK   36  A    between atoms: _96  and  _97
REMARK   37  A    between atoms: _100  and  _102
REMARK   38  A    between atoms: _102  and  _103
REMARK   39  A    between atoms: _102  and  _105
REMARK   40  A    between atoms: _105  and  _106
REMARK   41  A    between atoms: _106  and  _107
REMARK   42  A    between atoms: _110  and  _112
REMARK   43  A    between atoms: _112  and  _113
REMARK   44  A    between atoms: _112  and  _115
REMARK   45  A    between atoms: _115  and  _116
REMARK   46  A    between atoms: _122  and  _124
REMARK   47  A    between atoms: _124  and  _125
REMARK   48  A    between atoms: _127  and  _129
REMARK   49  A    between atoms: _129  and  _130
REMARK   50  A    between atoms: _132  and  _134
REMARK   51  A    between atoms: _134  and  _135
REMARK   52  A    between atoms: _138  and  _140
REMARK   53  A    between atoms: _140  and  _141
REMARK   54  A    between atoms: _140  and  _143
REMARK   55  A    between atoms: _143  and  _144
REMARK   56  A    between atoms: _144  and  _145
REMARK   57  A    between atoms: _145  and  _146
REMARK   58  A    between atoms: _146  and  _147
REMARK   59  A    between atoms: _151  and  _153
REMARK   60  A    between atoms: _153  and  _154
REMARK   61  A    between atoms: _153  and  _156
REMARK   62  A    between atoms: _156  and  _157
REMARK   63  A    between atoms: _157  and  _158
REMARK   64  A    between atoms: _160  and  _162
REMARK   65  A    between atoms: _162  and  _163
REMARK   66  A    between atoms: _162  and  _165
REMARK   67  A    between atoms: _165  and  _166
REMARK   68  A    between atoms: _171  and  _172
REMARK   69  A    between atoms: _174  and  _176
REMARK   70  A    between atoms: _176  and  _177
REMARK   71  A    between atoms: _176  and  _179
REMARK   72  A    between atoms: _179  and  _180
REMARK   73  A    between atoms: _183  and  _185
REMARK   74  A    between atoms: _185  and  _186
REMARK   75  A    between atoms: _185  and  _188
REMARK   76  A    between atoms: _188  and  _189
REMARK   77  A    between atoms: _195  and  _197
REMARK   78  A    between atoms: _197  and  _198
REMARK   79  A    between atoms: _197  and  _200
REMARK   80  A    between atoms: _200  and  _201
REMARK   81  A    between atoms: _206  and  _207
REMARK   82  A    between atoms: _209  and  _211
REMARK   83  A    between atoms: _211  and  _212
REMARK   84  A    between atoms: _214  and  _216
REMARK   85  A    between atoms: _216  and  _217
REMARK   86  A    between atoms: _219  and  _221
REMARK   87  A    between atoms: _221  and  _222
REMARK   88  A    between atoms: _221  and  _224
REMARK   89  A    between atoms: _224  and  _225
REMARK   90  A    between atoms: _235  and  _237
REMARK   91  A    between atoms: _237  and  _238
REMARK   92  A    between atoms: _237  and  _240
REMARK   93  A    between atoms: _240  and  _241
REMARK   94  A    between atoms: _246  and  _248
REMARK   95  A    between atoms: _248  and  _249
REMARK   96  A    between atoms: _248  and  _251
REMARK   97  A    between atoms: _251  and  _252
REMARK   98  A    between atoms: _257  and  _258
REMARK   99  A    between atoms: _260  and  _262
REMARK  100  A    between atoms: _262  and  _263
REMARK  101  A    between atoms: _262  and  _265
REMARK  102  A    between atoms: _265  and  _266
REMARK  103  A    between atoms: _271  and  _272
REMARK  104  A    between atoms: _274  and  _276
REMARK  105  A    between atoms: _276  and  _277
REMARK  106  A    between atoms: _276  and  _279
REMARK  107  A    between atoms: _279  and  _280
REMARK  108  A    between atoms: _280  and  _281
REMARK  109  A    between atoms: _281  and  _282
REMARK  110  A    between atoms: _291  and  _293
REMARK  111  A    between atoms: _293  and  _294
REMARK  112  A    between atoms: _293  and  _296
REMARK  113  A    between atoms: _296  and  _297
REMARK  114  A    between atoms: _297  and  _298
REMARK  115  A    between atoms: _298  and  _299
REMARK  116  A    between atoms: _299  and  _300
REMARK  117  A    between atoms: _304  and  _306
REMARK  118  A    between atoms: _306  and  _307
REMARK  119  A    between atoms: _306  and  _309
REMARK  120  A    between atoms: _309  and  _310
REMARK  121  A    between atoms: _310  and  _311
REMARK  122  A    between atoms: _314  and  _316
REMARK  123  A    between atoms: _316  and  _317
REMARK  124  A    between atoms: _316  and  _319
REMARK  125  A    between atoms: _322  and  _324
REMARK  126  A    between atoms: _324  and  _325
REMARK  127  A    between atoms: _324  and  _327
REMARK  128  A    between atoms: _327  and  _328
REMARK  129  A    between atoms: _338  and  _340
REMARK  130  A    between atoms: _340  and  _341
REMARK  131  A    between atoms: _340  and  _343
REMARK  132  A    between atoms: _343  and  _344
REMARK  133  A    between atoms: _344  and  _345
REMARK                            x       y       z     vdW  Elec       q    Type
REMARK                         _______ _______ _______ _____ _____    ______ ____
ROOT
ATOM      1  O   HOH     1      19.044  -2.509  20.175  0.00  0.00    +0.000 OA
ENDROOT
TORSDOF 0
REMARK  Name = ../refined-set-2016/3arv/3arv_pocket.pdb
REMARK  133 active torsions:
REMARK  status: ('A' for Active; 'I' for Inactive)
REMARK    1  A    between atoms: _1  and  _3
REMARK    2  A    between atoms: _3  and  _4
REMARK    3  A    between atoms: _3  and  _6
REMARK    4  A    between atoms: _6  and  _7
REMARK    5  A    between atoms: _17  and  _19
REMARK    6  A    between atoms: _19  and  _20
REMARK    7  A    between atoms: _19  and  _22
REMARK    8  A    between atoms: _22  and  _23
REMARK    9  A    between atoms: _29  and  _31
REMARK   10  A    between atoms: _31  and  _32
REMARK   11  A    between atoms: _31  and  _34
REMARK   12  A    between atoms: _34  and  _35
REMARK   13  A    between atoms: _37  and  _39
REMARK   14  A    between atoms: _39  and  _40
REMARK   15  A    between atoms: _39  and  _42
REMARK   16  A    between atoms: _45  and  _47
REMARK   17  A    between atoms: _47  and  _48
REMARK   18  A    between atoms: _47  and  _50
REMARK   19  A    between atoms: _50  and  _51
REMARK   20  A    between atoms: _53  and  _55
REMARK   21  A    between atoms: _55  and  _56
REMARK   22  A    between atoms: _55  and  _58
REMARK   23  A    between atoms: _61  and  _63
REMARK   24  A    between atoms: _63  and  _64
REMARK   25  A    between atoms: _66  and  _68
REMARK   26  A    between atoms: _68  and  _69
REMARK   27  A    between atoms: _68  and  _71
REMARK   28  A    between atoms: _71  and  _72
REMARK   29  A    between atoms: _82  and  _84
REMARK   30  A    between atoms: _84  and  _85
REMARK   31  A    between atoms: _84  and  _87
REMARK   32  A    between atoms: _87  and  _88
REMARK   33  A    between atoms: _91  and  _93
REMARK   34  A    between atoms: _93  and  _94
REMARK   35  A    between atoms: _93  and  _96
REMARK   36  A    between atoms: _96  and  _97
REMARK   37  A    between atoms: _100  and  _102
REMARK   38  A    between atoms: _102  and  _103
REMARK   39  A    between atoms: _102  and  _105
REMARK   40  A    between atoms: _105  and  _106
REMARK   41  A    between atoms: _106  and  _107
REMARK   42  A    between atoms: _110  and  _112
REMARK   43  A    between atoms: _112  and  _113
REMARK   44  A    between atoms: _112  and  _115
REMARK   45  A    between atoms: _115  and  _116
REMARK   46  A    between atoms: _122  and  _124
REMARK   47  A    between atoms: _124  and  _125
REMARK   48  A    between atoms: _127  and  _129
REMARK   49  A    between atoms: _129  and  _130
REMARK   50  A    between atoms: _132  and  _134
REMARK   51  A    between atoms: _134  and  _135
REMARK   52  A    between atoms: _138  and  _140
REMARK   53  A    between atoms: _140  and  _141
REMARK   54  A    between atoms: _140  and  _143
REMARK   55  A    between atoms: _143  and  _144
REMARK   56  A    between atoms: _144  and  _145
REMARK   57  A    between atoms: _145  and  _146
REMARK   58  A    between atoms: _146  and  _147
REMARK   59  A    between atoms: _151  and  _153
REMARK   60  A    between atoms: _153  and  _154
REMARK   61  A    between atoms: _153  and  _156
REMARK   62  A    between atoms: _156  and  _157
REMARK   63  A    between atoms: _157  and  _158
REMARK   64  A    between atoms: _160  and  _162
REMARK   65  A    between atoms: _162  and  _163
REMARK   66  A    between atoms: _162  and  _165
REMARK   67  A    between atoms: _165  and  _166
REMARK   68  A    between atoms: _171  and  _172
REMARK   69  A    between atoms: _174  and  _176
REMARK   70  A    between atoms: _176  and  _177
REMARK   71  A    between atoms: _176  and  _179
REMARK   72  A    between atoms: _179  and  _180
REMARK   73  A    between atoms: _183  and  _185
REMARK   74  A    between atoms: _185  and  _186
REMARK   75  A    between atoms: _185  and  _188
REMARK   76  A    between atoms: _188  and  _189
REMARK   77  A    between atoms: _195  and  _197
REMARK   78  A    between atoms: _197  and  _198
REMARK   79  A    between atoms: _197  and  _200
REMARK   80  A    between atoms: _200  and  _201
REMARK   81  A    between atoms: _206  and  _207
REMARK   82  A    between atoms: _209  and  _211
REMARK   83  A    between atoms: _211  and  _212
REMARK   84  A    between atoms: _214  and  _216
REMARK   85  A    between atoms: _216  and  _217
REMARK   86  A    between atoms: _219  and  _221
REMARK   87  A    between atoms: _221  and  _222
REMARK   88  A    between atoms: _221  and  _224
REMARK   89  A    between atoms: _224  and  _225
REMARK   90  A    between atoms: _235  and  _237
REMARK   91  A    between atoms: _237  and  _238
REMARK   92  A    between atoms: _237  and  _240
REMARK   93  A    between atoms: _240  and  _241
REMARK   94  A    between atoms: _246  and  _248
REMARK   95  A    between atoms: _248  and  _249
REMARK   96  A    between atoms: _248  and  _251
REMARK   97  A    between atoms: _251  and  _252
REMARK   98  A    between atoms: _257  and  _258
REMARK   99  A    between atoms: _260  and  _262
REMARK  100  A    between atoms: _262  and  _263
REMARK  101  A    between atoms: _262  and  _265
REMARK  102  A    between atoms: _265  and  _266
REMARK  103  A    between atoms: _271  and  _272
REMARK  104  A    between atoms: _274  and  _276
REMARK  105  A    between atoms: _276  and  _277
REMARK  106  A    between atoms: _276  and  _279
REMARK  107  A    between atoms: _279  and  _280
REMARK  108  A    between atoms: _280  and  _281
REMARK  109  A    between atoms: _281  and  _282
REMARK  110  A    between atoms: _291  and  _293
REMARK  111  A    between atoms: _293  and  _294
REMARK  112  A    between atoms: _293  and  _296
REMARK  113  A    between atoms: _296  and  _297
REMARK  114  A    between atoms: _297  and  _298
REMARK  115  A    between atoms: _298  and  _299
REMARK  116  A    between atoms: _299  and  _300
REMARK  117  A    between atoms: _304  and  _306
REMARK  118  A    between atoms: _306  and  _307
REMARK  119  A    between atoms: _306  and  _309
REMARK  120  A    between atoms: _309  and  _310
REMARK  121  A    between atoms: _310  and  _311
REMARK  122  A    between atoms: _314  and  _316
REMARK  123  A    between atoms: _316  and  _317
REMARK  124  A    between atoms: _316  and  _319
REMARK  125  A    between atoms: _322  and  _324
REMARK  126  A    between atoms: _324  and  _325
REMARK  127  A    between atoms: _324  and  _327
REMARK  128  A    between atoms: _327  and  _328
REMARK  129  A    between atoms: _338  and  _340
REMARK  130  A    between atoms: _340  and  _341
REMARK  131  A    between atoms: _340  and  _343
REMARK  132  A    between atoms: _343  and  _344
REMARK  133  A    between atoms: _344  and  _345
REMARK                            x       y       z     vdW  Elec       q    Type
REMARK                         _______ _______ _______ _____ _____    ______ ____
ROOT
ATOM      1  O   HOH     1      17.621 -13.633  18.073  0.00  0.00    +0.000 OA
ENDROOT
TORSDOF 0
REMARK  Name = ../refined-set-2016/3arv/3arv_pocket.pdb
REMARK  133 active torsions:
REMARK  status: ('A' for Active; 'I' for Inactive)
REMARK    1  A    between atoms: _1  and  _3
REMARK    2  A    between atoms: _3  and  _4
REMARK    3  A    between atoms: _3  and  _6
REMARK    4  A    between atoms: _6  and  _7
REMARK    5  A    between atoms: _17  and  _19
REMARK    6  A    between atoms: _19  and  _20
REMARK    7  A    between atoms: _19  and  _22
REMARK    8  A    between atoms: _22  and  _23
REMARK    9  A    between atoms: _29  and  _31
REMARK   10  A    between atoms: _31  and  _32
REMARK   11  A    between atoms: _31  and  _34
REMARK   12  A    between atoms: _34  and  _35
REMARK   13  A    between atoms: _37  and  _39
REMARK   14  A    between atoms: _39  and  _40
REMARK   15  A    between atoms: _39  and  _42
REMARK   16  A    between atoms: _45  and  _47
REMARK   17  A    between atoms: _47  and  _48
REMARK   18  A    between atoms: _47  and  _50
REMARK   19  A    between atoms: _50  and  _51
REMARK   20  A    between atoms: _53  and  _55
REMARK   21  A    between atoms: _55  and  _56
REMARK   22  A    between atoms: _55  and  _58
REMARK   23  A    between atoms: _61  and  _63
REMARK   24  A    between atoms: _63  and  _64
REMARK   25  A    between atoms: _66  and  _68
REMARK   26  A    between atoms: _68  and  _69
REMARK   27  A    between atoms: _68  and  _71
REMARK   28  A    between atoms: _71  and  _72
REMARK   29  A    between atoms: _82  and  _84
REMARK   30  A    between atoms: _84  and  _85
REMARK   31  A    between atoms: _84  and  _87
REMARK   32  A    between atoms: _87  and  _88
REMARK   33  A    between atoms: _91  and  _93
REMARK   34  A    between atoms: _93  and  _94
REMARK   35  A    between atoms: _93  and  _96
REMARK   36  A    between atoms: _96  and  _97
REMARK   37  A    between atoms: _100  and  _102
REMARK   38  A    between atoms: _102  and  _103
REMARK   39  A    between atoms: _102  and  _105
REMARK   40  A    between atoms: _105  and  _106
REMARK   41  A    between atoms: _106  and  _107
REMARK   42  A    between atoms: _110  and  _112
REMARK   43  A    between atoms: _112  and  _113
REMARK   44  A    between atoms: _112  and  _115
REMARK   45  A    between atoms: _115  and  _116
REMARK   46  A    between atoms: _122  and  _124
REMARK   47  A    between atoms: _124  and  _125
REMARK   48  A    between atoms: _127  and  _129
REMARK   49  A    between atoms: _129  and  _130
REMARK   50  A    between atoms: _132  and  _134
REMARK   51  A    between atoms: _134  and  _135
REMARK   52  A    between atoms: _138  and  _140
REMARK   53  A    between atoms: _140  and  _141
REMARK   54  A    between atoms: _140  and  _143
REMARK   55  A    between atoms: _143  and  _144
REMARK   56  A    between atoms: _144  and  _145
REMARK   57  A    between atoms: _145  and  _146
REMARK   58  A    between atoms: _146  and  _147
REMARK   59  A    between atoms: _151  and  _153
REMARK   60  A    between atoms: _153  and  _154
REMARK   61  A    between atoms: _153  and  _156
REMARK   62  A    between atoms: _156  and  _157
REMARK   63  A    between atoms: _157  and  _158
REMARK   64  A    between atoms: _160  and  _162
REMARK   65  A    between atoms: _162  and  _163
REMARK   66  A    between atoms: _162  and  _165
REMARK   67  A    between atoms: _165  and  _166
REMARK   68  A    between atoms: _171  and  _172
REMARK   69  A    between atoms: _174  and  _176
REMARK   70  A    between atoms: _176  and  _177
REMARK   71  A    between atoms: _176  and  _179
REMARK   72  A    between atoms: _179  and  _180
REMARK   73  A    between atoms: _183  and  _185
REMARK   74  A    between atoms: _185  and  _186
REMARK   75  A    between atoms: _185  and  _188
REMARK   76  A    between atoms: _188  and  _189
REMARK   77  A    between atoms: _195  and  _197
REMARK   78  A    between atoms: _197  and  _198
REMARK   79  A    between atoms: _197  and  _200
REMARK   80  A    between atoms: _200  and  _201
REMARK   81  A    between atoms: _206  and  _207
REMARK   82  A    between atoms: _209  and  _211
REMARK   83  A    between atoms: _211  and  _212
REMARK   84  A    between atoms: _214  and  _216
REMARK   85  A    between atoms: _216  and  _217
REMARK   86  A    between atoms: _219  and  _221
REMARK   87  A    between atoms: _221  and  _222
REMARK   88  A    between atoms: _221  and  _224
REMARK   89  A    between atoms: _224  and  _225
REMARK   90  A    between atoms: _235  and  _237
REMARK   91  A    between atoms: _237  and  _238
REMARK   92  A    between atoms: _237  and  _240
REMARK   93  A    between atoms: _240  and  _241
REMARK   94  A    between atoms: _246  and  _248
REMARK   95  A    between atoms: _248  and  _249
REMARK   96  A    between atoms: _248  and  _251
REMARK   97  A    between atoms: _251  and  _252
REMARK   98  A    between atoms: _257  and  _258
REMARK   99  A    between atoms: _260  and  _262
REMARK  100  A    between atoms: _262  and  _263
REMARK  101  A    between atoms: _262  and  _265
REMARK  102  A    between atoms: _265  and  _266
REMARK  103  A    between atoms: _271  and  _272
REMARK  104  A    between atoms: _274  and  _276
REMARK  105  A    between atoms: _276  and  _277
REMARK  106  A    between atoms: _276  and  _279
REMARK  107  A    between atoms: _279  and  _280
REMARK  108  A    between atoms: _280  and  _281
REMARK  109  A    between atoms: _281  and  _282
REMARK  110  A    between atoms: _291  and  _293
REMARK  111  A    between atoms: _293  and  _294
REMARK  112  A    between atoms: _293  and  _296
REMARK  113  A    between atoms: _296  and  _297
REMARK  114  A    between atoms: _297  and  _298
REMARK  115  A    between atoms: _298  and  _299
REMARK  116  A    between atoms: _299  and  _300
REMARK  117  A    between atoms: _304  and  _306
REMARK  118  A    between atoms: _306  and  _307
REMARK  119  A    between atoms: _306  and  _309
REMARK  120  A    between atoms: _309  and  _310
REMARK  121  A    between atoms: _310  and  _311
REMARK  122  A    between atoms: _314  and  _316
REMARK  123  A    between atoms: _316  and  _317
REMARK  124  A    between atoms: _316  and  _319
REMARK  125  A    between atoms: _322  and  _324
REMARK  126  A    between atoms: _324  and  _325
REMARK  127  A    between atoms: _324  and  _327
REMARK  128  A    between atoms: _327  and  _328
REMARK  129  A    between atoms: _338  and  _340
REMARK  130  A    between atoms: _340  and  _341
REMARK  131  A    between atoms: _340  and  _343
REMARK  132  A    between atoms: _343  and  _344
REMARK  133  A    between atoms: _344  and  _345
REMARK                            x       y       z     vdW  Elec       q    Type
REMARK                         _______ _______ _______ _____ _____    ______ ____
ROOT
ATOM      1  O   HOH     1      10.332  -4.555  26.512  0.00  0.00    +0.000 OA
ENDROOT
TORSDOF 0
REMARK  Name = ../refined-set-2016/3arv/3arv_pocket.pdb
REMARK  133 active torsions:
REMARK  status: ('A' for Active; 'I' for Inactive)
REMARK    1  A    between atoms: _1  and  _3
REMARK    2  A    between atoms: _3  and  _4
REMARK    3  A    between atoms: _3  and  _6
REMARK    4  A    between atoms: _6  and  _7
REMARK    5  A    between atoms: _17  and  _19
REMARK    6  A    between atoms: _19  and  _20
REMARK    7  A    between atoms: _19  and  _22
REMARK    8  A    between atoms: _22  and  _23
REMARK    9  A    between atoms: _29  and  _31
REMARK   10  A    between atoms: _31  and  _32
REMARK   11  A    between atoms: _31  and  _34
REMARK   12  A    between atoms: _34  and  _35
REMARK   13  A    between atoms: _37  and  _39
REMARK   14  A    between atoms: _39  and  _40
REMARK   15  A    between atoms: _39  and  _42
REMARK   16  A    between atoms: _45  and  _47
REMARK   17  A    between atoms: _47  and  _48
REMARK   18  A    between atoms: _47  and  _50
REMARK   19  A    between atoms: _50  and  _51
REMARK   20  A    between atoms: _53  and  _55
REMARK   21  A    between atoms: _55  and  _56
REMARK   22  A    between atoms: _55  and  _58
REMARK   23  A    between atoms: _61  and  _63
REMARK   24  A    between atoms: _63  and  _64
REMARK   25  A    between atoms: _66  and  _68
REMARK   26  A    between atoms: _68  and  _69
REMARK   27  A    between atoms: _68  and  _71
REMARK   28  A    between atoms: _71  and  _72
REMARK   29  A    between atoms: _82  and  _84
REMARK   30  A    between atoms: _84  and  _85
REMARK   31  A    between atoms: _84  and  _87
REMARK   32  A    between atoms: _87  and  _88
REMARK   33  A    between atoms: _91  and  _93
REMARK   34  A    between atoms: _93  and  _94
REMARK   35  A    between atoms: _93  and  _96
REMARK   36  A    between atoms: _96  and  _97
REMARK   37  A    between atoms: _100  and  _102
REMARK   38  A    between atoms: _102  and  _103
REMARK   39  A    between atoms: _102  and  _105
REMARK   40  A    between atoms: _105  and  _106
REMARK   41  A    between atoms: _106  and  _107
REMARK   42  A    between atoms: _110  and  _112
REMARK   43  A    between atoms: _112  and  _113
REMARK   44  A    between atoms: _112  and  _115
REMARK   45  A    between atoms: _115  and  _116
REMARK   46  A    between atoms: _122  and  _124
REMARK   47  A    between atoms: _124  and  _125
REMARK   48  A    between atoms: _127  and  _129
REMARK   49  A    between atoms: _129  and  _130
REMARK   50  A    between atoms: _132  and  _134
REMARK   51  A    between atoms: _134  and  _135
REMARK   52  A    between atoms: _138  and  _140
REMARK   53  A    between atoms: _140  and  _141
REMARK   54  A    between atoms: _140  and  _143
REMARK   55  A    between atoms: _143  and  _144
REMARK   56  A    between atoms: _144  and  _145
REMARK   57  A    between atoms: _145  and  _146
REMARK   58  A    between atoms: _146  and  _147
REMARK   59  A    between atoms: _151  and  _153
REMARK   60  A    between atoms: _153  and  _154
REMARK   61  A    between atoms: _153  and  _156
REMARK   62  A    between atoms: _156  and  _157
REMARK   63  A    between atoms: _157  and  _158
REMARK   64  A    between atoms: _160  and  _162
REMARK   65  A    between atoms: _162  and  _163
REMARK   66  A    between atoms: _162  and  _165
REMARK   67  A    between atoms: _165  and  _166
REMARK   68  A    between atoms: _171  and  _172
REMARK   69  A    between atoms: _174  and  _176
REMARK   70  A    between atoms: _176  and  _177
REMARK   71  A    between atoms: _176  and  _179
REMARK   72  A    between atoms: _179  and  _180
REMARK   73  A    between atoms: _183  and  _185
REMARK   74  A    between atoms: _185  and  _186
REMARK   75  A    between atoms: _185  and  _188
REMARK   76  A    between atoms: _188  and  _189
REMARK   77  A    between atoms: _195  and  _197
REMARK   78  A    between atoms: _197  and  _198
REMARK   79  A    between atoms: _197  and  _200
REMARK   80  A    between atoms: _200  and  _201
REMARK   81  A    between atoms: _206  and  _207
REMARK   82  A    between atoms: _209  and  _211
REMARK   83  A    between atoms: _211  and  _212
REMARK   84  A    between atoms: _214  and  _216
REMARK   85  A    between atoms: _216  and  _217
REMARK   86  A    between atoms: _219  and  _221
REMARK   87  A    between atoms: _221  and  _222
REMARK   88  A    between atoms: _221  and  _224
REMARK   89  A    between atoms: _224  and  _225
REMARK   90  A    between atoms: _235  and  _237
REMARK   91  A    between atoms: _237  and  _238
REMARK   92  A    between atoms: _237  and  _240
REMARK   93  A    between atoms: _240  and  _241
REMARK   94  A    between atoms: _246  and  _248
REMARK   95  A    between atoms: _248  and  _249
REMARK   96  A    between atoms: _248  and  _251
REMARK   97  A    between atoms: _251  and  _252
REMARK   98  A    between atoms: _257  and  _258
REMARK   99  A    between atoms: _260  and  _262
REMARK  100  A    between atoms: _262  and  _263
REMARK  101  A    between atoms: _262  and  _265
REMARK  102  A    between atoms: _265  and  _266
REMARK  103  A    between atoms: _271  and  _272
REMARK  104  A    between atoms: _274  and  _276
REMARK  105  A    between atoms: _276  and  _277
REMARK  106  A    between atoms: _276  and  _279
REMARK  107  A    between atoms: _279  and  _280
REMARK  108  A    between atoms: _280  and  _281
REMARK  109  A    between atoms: _281  and  _282
REMARK  110  A    between atoms: _291  and  _293
REMARK  111  A    between atoms: _293  and  _294
REMARK  112  A    between atoms: _293  and  _296
REMARK  113  A    between atoms: _296  and  _297
REMARK  114  A    between atoms: _297  and  _298
REMARK  115  A    between atoms: _298  and  _299
REMARK  116  A    between atoms: _299  and  _300
REMARK  117  A    between atoms: _304  and  _306
REMARK  118  A    between atoms: _306  and  _307
REMARK  119  A    between atoms: _306  and  _309
REMARK  120  A    between atoms: _309  and  _310
REMARK  121  A    between atoms: _310  and  _311
REMARK  122  A    between atoms: _314  and  _316
REMARK  123  A    between atoms: _316  and  _317
REMARK  124  A    between atoms: _316  and  _319
REMARK  125  A    between atoms: _322  and  _324
REMARK  126  A    between atoms: _324  and  _325
REMARK  127  A    between atoms: _324  and  _327
REMARK  128  A    between atoms: _327  and  _328
REMARK  129  A    between atoms: _338  and  _340
REMARK  130  A    between atoms: _340  and  _341
REMARK  131  A    between atoms: _340  and  _343
REMARK  132  A    between atoms: _343  and  _344
REMARK  133  A    between atoms: _344  and  _345
REMARK                            x       y       z     vdW  Elec       q    Type
REMARK                         _______ _______ _______ _____ _____    ______ ____
ROOT
ATOM      1  O   HOH     1      22.724  -5.992  25.106  0.00  0.00    +0.000 OA
ENDROOT
TORSDOF 0
REMARK  Name = ../refined-set-2016/3arv/3arv_pocket.pdb
REMARK  133 active torsions:
REMARK  status: ('A' for Active; 'I' for Inactive)
REMARK    1  A    between atoms: _1  and  _3
REMARK    2  A    between atoms: _3  and  _4
REMARK    3  A    between atoms: _3  and  _6
REMARK    4  A    between atoms: _6  and  _7
REMARK    5  A    between atoms: _17  and  _19
REMARK    6  A    between atoms: _19  and  _20
REMARK    7  A    between atoms: _19  and  _22
REMARK    8  A    between atoms: _22  and  _23
REMARK    9  A    between atoms: _29  and  _31
REMARK   10  A    between atoms: _31  and  _32
REMARK   11  A    between atoms: _31  and  _34
REMARK   12  A    between atoms: _34  and  _35
REMARK   13  A    between atoms: _37  and  _39
REMARK   14  A    between atoms: _39  and  _40
REMARK   15  A    between atoms: _39  and  _42
REMARK   16  A    between atoms: _45  and  _47
REMARK   17  A    between atoms: _47  and  _48
REMARK   18  A    between atoms: _47  and  _50
REMARK   19  A    between atoms: _50  and  _51
REMARK   20  A    between atoms: _53  and  _55
REMARK   21  A    between atoms: _55  and  _56
REMARK   22  A    between atoms: _55  and  _58
REMARK   23  A    between atoms: _61  and  _63
REMARK   24  A    between atoms: _63  and  _64
REMARK   25  A    between atoms: _66  and  _68
REMARK   26  A    between atoms: _68  and  _69
REMARK   27  A    between atoms: _68  and  _71
REMARK   28  A    between atoms: _71  and  _72
REMARK   29  A    between atoms: _82  and  _84
REMARK   30  A    between atoms: _84  and  _85
REMARK   31  A    between atoms: _84  and  _87
REMARK   32  A    between atoms: _87  and  _88
REMARK   33  A    between atoms: _91  and  _93
REMARK   34  A    between atoms: _93  and  _94
REMARK   35  A    between atoms: _93  and  _96
REMARK   36  A    between atoms: _96  and  _97
REMARK   37  A    between atoms: _100  and  _102
REMARK   38  A    between atoms: _102  and  _103
REMARK   39  A    between atoms: _102  and  _105
REMARK   40  A    between atoms: _105  and  _106
REMARK   41  A    between atoms: _106  and  _107
REMARK   42  A    between atoms: _110  and  _112
REMARK   43  A    between atoms: _112  and  _113
REMARK   44  A    between atoms: _112  and  _115
REMARK   45  A    between atoms: _115  and  _116
REMARK   46  A    between atoms: _122  and  _124
REMARK   47  A    between atoms: _124  and  _125
REMARK   48  A    between atoms: _127  and  _129
REMARK   49  A    between atoms: _129  and  _130
REMARK   50  A    between atoms: _132  and  _134
REMARK   51  A    between atoms: _134  and  _135
REMARK   52  A    between atoms: _138  and  _140
REMARK   53  A    between atoms: _140  and  _141
REMARK   54  A    between atoms: _140  and  _143
REMARK   55  A    between atoms: _143  and  _144
REMARK   56  A    between atoms: _144  and  _145
REMARK   57  A    between atoms: _145  and  _146
REMARK   58  A    between atoms: _146  and  _147
REMARK   59  A    between atoms: _151  and  _153
REMARK   60  A    between atoms: _153  and  _154
REMARK   61  A    between atoms: _153  and  _156
REMARK   62  A    between atoms: _156  and  _157
REMARK   63  A    between atoms: _157  and  _158
REMARK   64  A    between atoms: _160  and  _162
REMARK   65  A    between atoms: _162  and  _163
REMARK   66  A    between atoms: _162  and  _165
REMARK   67  A    between atoms: _165  and  _166
REMARK   68  A    between atoms: _171  and  _172
REMARK   69  A    between atoms: _174  and  _176
REMARK   70  A    between atoms: _176  and  _177
REMARK   71  A    between atoms: _176  and  _179
REMARK   72  A    between atoms: _179  and  _180
REMARK   73  A    between atoms: _183  and  _185
REMARK   74  A    between atoms: _185  and  _186
REMARK   75  A    between atoms: _185  and  _188
REMARK   76  A    between atoms: _188  and  _189
REMARK   77  A    between atoms: _195  and  _197
REMARK   78  A    between atoms: _197  and  _198
REMARK   79  A    between atoms: _197  and  _200
REMARK   80  A    between atoms: _200  and  _201
REMARK   81  A    between atoms: _206  and  _207
REMARK   82  A    between atoms: _209  and  _211
REMARK   83  A    between atoms: _211  and  _212
REMARK   84  A    between atoms: _214  and  _216
REMARK   85  A    between atoms: _216  and  _217
REMARK   86  A    between atoms: _219  and  _221
REMARK   87  A    between atoms: _221  and  _222
REMARK   88  A    between atoms: _221  and  _224
REMARK   89  A    between atoms: _224  and  _225
REMARK   90  A    between atoms: _235  and  _237
REMARK   91  A    between atoms: _237  and  _238
REMARK   92  A    between atoms: _237  and  _240
REMARK   93  A    between atoms: _240  and  _241
REMARK   94  A    between atoms: _246  and  _248
REMARK   95  A    between atoms: _248  and  _249
REMARK   96  A    between atoms: _248  and  _251
REMARK   97  A    between atoms: _251  and  _252
REMARK   98  A    between atoms: _257  and  _258
REMARK   99  A    between atoms: _260  and  _262
REMARK  100  A    between atoms: _262  and  _263
REMARK  101  A    between atoms: _262  and  _265
REMARK  102  A    between atoms: _265  and  _266
REMARK  103  A    between atoms: _271  and  _272
REMARK  104  A    between atoms: _274  and  _276
REMARK  105  A    between atoms: _276  and  _277
REMARK  106  A    between atoms: _276  and  _279
REMARK  107  A    between atoms: _279  and  _280
REMARK  108  A    between atoms: _280  and  _281
REMARK  109  A    between atoms: _281  and  _282
REMARK  110  A    between atoms: _291  and  _293
REMARK  111  A    between atoms: _293  and  _294
REMARK  112  A    between atoms: _293  and  _296
REMARK  113  A    between atoms: _296  and  _297
REMARK  114  A    between atoms: _297  and  _298
REMARK  115  A    between atoms: _298  and  _299
REMARK  116  A    between atoms: _299  and  _300
REMARK  117  A    between atoms: _304  and  _306
REMARK  118  A    between atoms: _306  and  _307
REMARK  119  A    between atoms: _306  and  _309
REMARK  120  A    between atoms: _309  and  _310
REMARK  121  A    between atoms: _310  and  _311
REMARK  122  A    between atoms: _314  and  _316
REMARK  123  A    between atoms: _316  and  _317
REMARK  124  A    between atoms: _316  and  _319
REMARK  125  A    between atoms: _322  and  _324
REMARK  126  A    between atoms: _324  and  _325
REMARK  127  A    between atoms: _324  and  _327
REMARK  128  A    between atoms: _327  and  _328
REMARK  129  A    between atoms: _338  and  _340
REMARK  130  A    between atoms: _340  and  _341
REMARK  131  A    between atoms: _340  and  _343
REMARK  132  A    between atoms: _343  and  _344
REMARK  133  A    between atoms: _344  and  _345
REMARK                            x       y       z     vdW  Elec       q    Type
REMARK                         _______ _______ _______ _____ _____    ______ ____
ROOT
ATOM      1  O   HOH     1      18.201 -10.535  27.855  0.00  0.00    +0.000 OA
ENDROOT
TORSDOF 0
REMARK  Name = ../refined-set-2016/3arv/3arv_pocket.pdb
REMARK  133 active torsions:
REMARK  status: ('A' for Active; 'I' for Inactive)
REMARK    1  A    between atoms: _1  and  _3
REMARK    2  A    between atoms: _3  and  _4
REMARK    3  A    between atoms: _3  and  _6
REMARK    4  A    between atoms: _6  and  _7
REMARK    5  A    between atoms: _17  and  _19
REMARK    6  A    between atoms: _19  and  _20
REMARK    7  A    between atoms: _19  and  _22
REMARK    8  A    between atoms: _22  and  _23
REMARK    9  A    between atoms: _29  and  _31
REMARK   10  A    between atoms: _31  and  _32
REMARK   11  A    between atoms: _31  and  _34
REMARK   12  A    between atoms: _34  and  _35
REMARK   13  A    between atoms: _37  and  _39
REMARK   14  A    between atoms: _39  and  _40
REMARK   15  A    between atoms: _39  and  _42
REMARK   16  A    between atoms: _45  and  _47
REMARK   17  A    between atoms: _47  and  _48
REMARK   18  A    between atoms: _47  and  _50
REMARK   19  A    between atoms: _50  and  _51
REMARK   20  A    between atoms: _53  and  _55
REMARK   21  A    between atoms: _55  and  _56
REMARK   22  A    between atoms: _55  and  _58
REMARK   23  A    between atoms: _61  and  _63
REMARK   24  A    between atoms: _63  and  _64
REMARK   25  A    between atoms: _66  and  _68
REMARK   26  A    between atoms: _68  and  _69
REMARK   27  A    between atoms: _68  and  _71
REMARK   28  A    between atoms: _71  and  _72
REMARK   29  A    between atoms: _82  and  _84
REMARK   30  A    between atoms: _84  and  _85
REMARK   31  A    between atoms: _84  and  _87
REMARK   32  A    between atoms: _87  and  _88
REMARK   33  A    between atoms: _91  and  _93
REMARK   34  A    between atoms: _93  and  _94
REMARK   35  A    between atoms: _93  and  _96
REMARK   36  A    between atoms: _96  and  _97
REMARK   37  A    between atoms: _100  and  _102
REMARK   38  A    between atoms: _102  and  _103
REMARK   39  A    between atoms: _102  and  _105
REMARK   40  A    between atoms: _105  and  _106
REMARK   41  A    between atoms: _106  and  _107
REMARK   42  A    between atoms: _110  and  _112
REMARK   43  A    between atoms: _112  and  _113
REMARK   44  A    between atoms: _112  and  _115
REMARK   45  A    between atoms: _115  and  _116
REMARK   46  A    between atoms: _122  and  _124
REMARK   47  A    between atoms: _124  and  _125
REMARK   48  A    between atoms: _127  and  _129
REMARK   49  A    between atoms: _129  and  _130
REMARK   50  A    between atoms: _132  and  _134
REMARK   51  A    between atoms: _134  and  _135
REMARK   52  A    between atoms: _138  and  _140
REMARK   53  A    between atoms: _140  and  _141
REMARK   54  A    between atoms: _140  and  _143
REMARK   55  A    between atoms: _143  and  _144
REMARK   56  A    between atoms: _144  and  _145
REMARK   57  A    between atoms: _145  and  _146
REMARK   58  A    between atoms: _146  and  _147
REMARK   59  A    between atoms: _151  and  _153
REMARK   60  A    between atoms: _153  and  _154
REMARK   61  A    between atoms: _153  and  _156
REMARK   62  A    between atoms: _156  and  _157
REMARK   63  A    between atoms: _157  and  _158
REMARK   64  A    between atoms: _160  and  _162
REMARK   65  A    between atoms: _162  and  _163
REMARK   66  A    between atoms: _162  and  _165
REMARK   67  A    between atoms: _165  and  _166
REMARK   68  A    between atoms: _171  and  _172
REMARK   69  A    between atoms: _174  and  _176
REMARK   70  A    between atoms: _176  and  _177
REMARK   71  A    between atoms: _176  and  _179
REMARK   72  A    between atoms: _179  and  _180
REMARK   73  A    between atoms: _183  and  _185
REMARK   74  A    between atoms: _185  and  _186
REMARK   75  A    between atoms: _185  and  _188
REMARK   76  A    between atoms: _188  and  _189
REMARK   77  A    between atoms: _195  and  _197
REMARK   78  A    between atoms: _197  and  _198
REMARK   79  A    between atoms: _197  and  _200
REMARK   80  A    between atoms: _200  and  _201
REMARK   81  A    between atoms: _206  and  _207
REMARK   82  A    between atoms: _209  and  _211
REMARK   83  A    between atoms: _211  and  _212
REMARK   84  A    between atoms: _214  and  _216
REMARK   85  A    between atoms: _216  and  _217
REMARK   86  A    between atoms: _219  and  _221
REMARK   87  A    between atoms: _221  and  _222
REMARK   88  A    between atoms: _221  and  _224
REMARK   89  A    between atoms: _224  and  _225
REMARK   90  A    between atoms: _235  and  _237
REMARK   91  A    between atoms: _237  and  _238
REMARK   92  A    between atoms: _237  and  _240
REMARK   93  A    between atoms: _240  and  _241
REMARK   94  A    between atoms: _246  and  _248
REMARK   95  A    between atoms: _248  and  _249
REMARK   96  A    between atoms: _248  and  _251
REMARK   97  A    between atoms: _251  and  _252
REMARK   98  A    between atoms: _257  and  _258
REMARK   99  A    between atoms: _260  and  _262
REMARK  100  A    between atoms: _262  and  _263
REMARK  101  A    between atoms: _262  and  _265
REMARK  102  A    between atoms: _265  and  _266
REMARK  103  A    between atoms: _271  and  _272
REMARK  104  A    between atoms: _274  and  _276
REMARK  105  A    between atoms: _276  and  _277
REMARK  106  A    between atoms: _276  and  _279
REMARK  107  A    between atoms: _279  and  _280
REMARK  108  A    between atoms: _280  and  _281
REMARK  109  A    between atoms: _281  and  _282
REMARK  110  A    between atoms: _291  and  _293
REMARK  111  A    between atoms: _293  and  _294
REMARK  112  A    between atoms: _293  and  _296
REMARK  113  A    between atoms: _296  and  _297
REMARK  114  A    between atoms: _297  and  _298
REMARK  115  A    between atoms: _298  and  _299
REMARK  116  A    between atoms: _299  and  _300
REMARK  117  A    between atoms: _304  and  _306
REMARK  118  A    between atoms: _306  and  _307
REMARK  119  A    between atoms: _306  and  _309
REMARK  120  A    between atoms: _309  and  _310
REMARK  121  A    between atoms: _310  and  _311
REMARK  122  A    between atoms: _314  and  _316
REMARK  123  A    between atoms: _316  and  _317
REMARK  124  A    between atoms: _316  and  _319
REMARK  125  A    between atoms: _322  and  _324
REMARK  126  A    between atoms: _324  and  _325
REMARK  127  A    between atoms: _324  and  _327
REMARK  128  A    between atoms: _327  and  _328
REMARK  129  A    between atoms: _338  and  _340
REMARK  130  A    between atoms: _340  and  _341
REMARK  131  A    between atoms: _340  and  _343
REMARK  132  A    between atoms: _343  and  _344
REMARK  133  A    between atoms: _344  and  _345
REMARK                            x       y       z     vdW  Elec       q    Type
REMARK                         _______ _______ _______ _____ _____    ______ ____
ROOT
ATOM      1  O   HOH     1      11.218  -3.281  21.320  0.00  0.00    +0.000 OA
ENDROOT
TORSDOF 0
REMARK  Name = ../refined-set-2016/3arv/3arv_pocket.pdb
REMARK  133 active torsions:
REMARK  status: ('A' for Active; 'I' for Inactive)
REMARK    1  A    between atoms: _1  and  _3
REMARK    2  A    between atoms: _3  and  _4
REMARK    3  A    between atoms: _3  and  _6
REMARK    4  A    between atoms: _6  and  _7
REMARK    5  A    between atoms: _17  and  _19
REMARK    6  A    between atoms: _19  and  _20
REMARK    7  A    between atoms: _19  and  _22
REMARK    8  A    between atoms: _22  and  _23
REMARK    9  A    between atoms: _29  and  _31
REMARK   10  A    between atoms: _31  and  _32
REMARK   11  A    between atoms: _31  and  _34
REMARK   12  A    between atoms: _34  and  _35
REMARK   13  A    between atoms: _37  and  _39
REMARK   14  A    between atoms: _39  and  _40
REMARK   15  A    between atoms: _39  and  _42
REMARK   16  A    between atoms: _45  and  _47
REMARK   17  A    between atoms: _47  and  _48
REMARK   18  A    between atoms: _47  and  _50
REMARK   19  A    between atoms: _50  and  _51
REMARK   20  A    between atoms: _53  and  _55
REMARK   21  A    between atoms: _55  and  _56
REMARK   22  A    between atoms: _55  and  _58
REMARK   23  A    between atoms: _61  and  _63
REMARK   24  A    between atoms: _63  and  _64
REMARK   25  A    between atoms: _66  and  _68
REMARK   26  A    between atoms: _68  and  _69
REMARK   27  A    between atoms: _68  and  _71
REMARK   28  A    between atoms: _71  and  _72
REMARK   29  A    between atoms: _82  and  _84
REMARK   30  A    between atoms: _84  and  _85
REMARK   31  A    between atoms: _84  and  _87
REMARK   32  A    between atoms: _87  and  _88
REMARK   33  A    between atoms: _91  and  _93
REMARK   34  A    between atoms: _93  and  _94
REMARK   35  A    between atoms: _93  and  _96
REMARK   36  A    between atoms: _96  and  _97
REMARK   37  A    between atoms: _100  and  _102
REMARK   38  A    between atoms: _102  and  _103
REMARK   39  A    between atoms: _102  and  _105
REMARK   40  A    between atoms: _105  and  _106
REMARK   41  A    between atoms: _106  and  _107
REMARK   42  A    between atoms: _110  and  _112
REMARK   43  A    between atoms: _112  and  _113
REMARK   44  A    between atoms: _112  and  _115
REMARK   45  A    between atoms: _115  and  _116
REMARK   46  A    between atoms: _122  and  _124
REMARK   47  A    between atoms: _124  and  _125
REMARK   48  A    between atoms: _127  and  _129
REMARK   49  A    between atoms: _129  and  _130
REMARK   50  A    between atoms: _132  and  _134
REMARK   51  A    between atoms: _134  and  _135
REMARK   52  A    between atoms: _138  and  _140
REMARK   53  A    between atoms: _140  and  _141
REMARK   54  A    between atoms: _140  and  _143
REMARK   55  A    between atoms: _143  and  _144
REMARK   56  A    between atoms: _144  and  _145
REMARK   57  A    between atoms: _145  and  _146
REMARK   58  A    between atoms: _146  and  _147
REMARK   59  A    between atoms: _151  and  _153
REMARK   60  A    between atoms: _153  and  _154
REMARK   61  A    between atoms: _153  and  _156
REMARK   62  A    between atoms: _156  and  _157
REMARK   63  A    between atoms: _157  and  _158
REMARK   64  A    between atoms: _160  and  _162
REMARK   65  A    between atoms: _162  and  _163
REMARK   66  A    between atoms: _162  and  _165
REMARK   67  A    between atoms: _165  and  _166
REMARK   68  A    between atoms: _171  and  _172
REMARK   69  A    between atoms: _174  and  _176
REMARK   70  A    between atoms: _176  and  _177
REMARK   71  A    between atoms: _176  and  _179
REMARK   72  A    between atoms: _179  and  _180
REMARK   73  A    between atoms: _183  and  _185
REMARK   74  A    between atoms: _185  and  _186
REMARK   75  A    between atoms: _185  and  _188
REMARK   76  A    between atoms: _188  and  _189
REMARK   77  A    between atoms: _195  and  _197
REMARK   78  A    between atoms: _197  and  _198
REMARK   79  A    between atoms: _197  and  _200
REMARK   80  A    between atoms: _200  and  _201
REMARK   81  A    between atoms: _206  and  _207
REMARK   82  A    between atoms: _209  and  _211
REMARK   83  A    between atoms: _211  and  _212
REMARK   84  A    between atoms: _214  and  _216
REMARK   85  A    between atoms: _216  and  _217
REMARK   86  A    between atoms: _219  and  _221
REMARK   87  A    between atoms: _221  and  _222
REMARK   88  A    between atoms: _221  and  _224
REMARK   89  A    between atoms: _224  and  _225
REMARK   90  A    between atoms: _235  and  _237
REMARK   91  A    between atoms: _237  and  _238
REMARK   92  A    between atoms: _237  and  _240
REMARK   93  A    between atoms: _240  and  _241
REMARK   94  A    between atoms: _246  and  _248
REMARK   95  A    between atoms: _248  and  _249
REMARK   96  A    between atoms: _248  and  _251
REMARK   97  A    between atoms: _251  and  _252
REMARK   98  A    between atoms: _257  and  _258
REMARK   99  A    between atoms: _260  and  _262
REMARK  100  A    between atoms: _262  and  _263
REMARK  101  A    between atoms: _262  and  _265
REMARK  102  A    between atoms: _265  and  _266
REMARK  103  A    between atoms: _271  and  _272
REMARK  104  A    between atoms: _274  and  _276
REMARK  105  A    between atoms: _276  and  _277
REMARK  106  A    between atoms: _276  and  _279
REMARK  107  A    between atoms: _279  and  _280
REMARK  108  A    between atoms: _280  and  _281
REMARK  109  A    between atoms: _281  and  _282
REMARK  110  A    between atoms: _291  and  _293
REMARK  111  A    between atoms: _293  and  _294
REMARK  112  A    between atoms: _293  and  _296
REMARK  113  A    between atoms: _296  and  _297
REMARK  114  A    between atoms: _297  and  _298
REMARK  115  A    between atoms: _298  and  _299
REMARK  116  A    between atoms: _299  and  _300
REMARK  117  A    between atoms: _304  and  _306
REMARK  118  A    between atoms: _306  and  _307
REMARK  119  A    between atoms: _306  and  _309
REMARK  120  A    between atoms: _309  and  _310
REMARK  121  A    between atoms: _310  and  _311
REMARK  122  A    between atoms: _314  and  _316
REMARK  123  A    between atoms: _316  and  _317
REMARK  124  A    between atoms: _316  and  _319
REMARK  125  A    between atoms: _322  and  _324
REMARK  126  A    between atoms: _324  and  _325
REMARK  127  A    between atoms: _324  and  _327
REMARK  128  A    between atoms: _327  and  _328
REMARK  129  A    between atoms: _338  and  _340
REMARK  130  A    between atoms: _340  and  _341
REMARK  131  A    between atoms: _340  and  _343
REMARK  132  A    between atoms: _343  and  _344
REMARK  133  A    between atoms: _344  and  _345
REMARK                            x       y       z     vdW  Elec       q    Type
REMARK                         _______ _______ _______ _____ _____    ______ ____
ROOT
ATOM      1  O   HOH     1      11.049  -7.244  19.766  0.00  0.00    +0.000 OA
ENDROOT
TORSDOF 0
REMARK  Name = ../refined-set-2016/3arv/3arv_pocket.pdb
REMARK  133 active torsions:
REMARK  status: ('A' for Active; 'I' for Inactive)
REMARK    1  A    between atoms: _1  and  _3
REMARK    2  A    between atoms: _3  and  _4
REMARK    3  A    between atoms: _3  and  _6
REMARK    4  A    between atoms: _6  and  _7
REMARK    5  A    between atoms: _17  and  _19
REMARK    6  A    between atoms: _19  and  _20
REMARK    7  A    between atoms: _19  and  _22
REMARK    8  A    between atoms: _22  and  _23
REMARK    9  A    between atoms: _29  and  _31
REMARK   10  A    between atoms: _31  and  _32
REMARK   11  A    between atoms: _31  and  _34
REMARK   12  A    between atoms: _34  and  _35
REMARK   13  A    between atoms: _37  and  _39
REMARK   14  A    between atoms: _39  and  _40
REMARK   15  A    between atoms: _39  and  _42
REMARK   16  A    between atoms: _45  and  _47
REMARK   17  A    between atoms: _47  and  _48
REMARK   18  A    between atoms: _47  and  _50
REMARK   19  A    between atoms: _50  and  _51
REMARK   20  A    between atoms: _53  and  _55
REMARK   21  A    between atoms: _55  and  _56
REMARK   22  A    between atoms: _55  and  _58
REMARK   23  A    between atoms: _61  and  _63
REMARK   24  A    between atoms: _63  and  _64
REMARK   25  A    between atoms: _66  and  _68
REMARK   26  A    between atoms: _68  and  _69
REMARK   27  A    between atoms: _68  and  _71
REMARK   28  A    between atoms: _71  and  _72
REMARK   29  A    between atoms: _82  and  _84
REMARK   30  A    between atoms: _84  and  _85
REMARK   31  A    between atoms: _84  and  _87
REMARK   32  A    between atoms: _87  and  _88
REMARK   33  A    between atoms: _91  and  _93
REMARK   34  A    between atoms: _93  and  _94
REMARK   35  A    between atoms: _93  and  _96
REMARK   36  A    between atoms: _96  and  _97
REMARK   37  A    between atoms: _100  and  _102
REMARK   38  A    between atoms: _102  and  _103
REMARK   39  A    between atoms: _102  and  _105
REMARK   40  A    between atoms: _105  and  _106
REMARK   41  A    between atoms: _106  and  _107
REMARK   42  A    between atoms: _110  and  _112
REMARK   43  A    between atoms: _112  and  _113
REMARK   44  A    between atoms: _112  and  _115
REMARK   45  A    between atoms: _115  and  _116
REMARK   46  A    between atoms: _122  and  _124
REMARK   47  A    between atoms: _124  and  _125
REMARK   48  A    between atoms: _127  and  _129
REMARK   49  A    between atoms: _129  and  _130
REMARK   50  A    between atoms: _132  and  _134
REMARK   51  A    between atoms: _134  and  _135
REMARK   52  A    between atoms: _138  and  _140
REMARK   53  A    between atoms: _140  and  _141
REMARK   54  A    between atoms: _140  and  _143
REMARK   55  A    between atoms: _143  and  _144
REMARK   56  A    between atoms: _144  and  _145
REMARK   57  A    between atoms: _145  and  _146
REMARK   58  A    between atoms: _146  and  _147
REMARK   59  A    between atoms: _151  and  _153
REMARK   60  A    between atoms: _153  and  _154
REMARK   61  A    between atoms: _153  and  _156
REMARK   62  A    between atoms: _156  and  _157
REMARK   63  A    between atoms: _157  and  _158
REMARK   64  A    between atoms: _160  and  _162
REMARK   65  A    between atoms: _162  and  _163
REMARK   66  A    between atoms: _162  and  _165
REMARK   67  A    between atoms: _165  and  _166
REMARK   68  A    between atoms: _171  and  _172
REMARK   69  A    between atoms: _174  and  _176
REMARK   70  A    between atoms: _176  and  _177
REMARK   71  A    between atoms: _176  and  _179
REMARK   72  A    between atoms: _179  and  _180
REMARK   73  A    between atoms: _183  and  _185
REMARK   74  A    between atoms: _185  and  _186
REMARK   75  A    between atoms: _185  and  _188
REMARK   76  A    between atoms: _188  and  _189
REMARK   77  A    between atoms: _195  and  _197
REMARK   78  A    between atoms: _197  and  _198
REMARK   79  A    between atoms: _197  and  _200
REMARK   80  A    between atoms: _200  and  _201
REMARK   81  A    between atoms: _206  and  _207
REMARK   82  A    between atoms: _209  and  _211
REMARK   83  A    between atoms: _211  and  _212
REMARK   84  A    between atoms: _214  and  _216
REMARK   85  A    between atoms: _216  and  _217
REMARK   86  A    between atoms: _219  and  _221
REMARK   87  A    between atoms: _221  and  _222
REMARK   88  A    between atoms: _221  and  _224
REMARK   89  A    between atoms: _224  and  _225
REMARK   90  A    between atoms: _235  and  _237
REMARK   91  A    between atoms: _237  and  _238
REMARK   92  A    between atoms: _237  and  _240
REMARK   93  A    between atoms: _240  and  _241
REMARK   94  A    between atoms: _246  and  _248
REMARK   95  A    between atoms: _248  and  _249
REMARK   96  A    between atoms: _248  and  _251
REMARK   97  A    between atoms: _251  and  _252
REMARK   98  A    between atoms: _257  and  _258
REMARK   99  A    between atoms: _260  and  _262
REMARK  100  A    between atoms: _262  and  _263
REMARK  101  A    between atoms: _262  and  _265
REMARK  102  A    between atoms: _265  and  _266
REMARK  103  A    between atoms: _271  and  _272
REMARK  104  A    between atoms: _274  and  _276
REMARK  105  A    between atoms: _276  and  _277
REMARK  106  A    between atoms: _276  and  _279
REMARK  107  A    between atoms: _279  and  _280
REMARK  108  A    between atoms: _280  and  _281
REMARK  109  A    between atoms: _281  and  _282
REMARK  110  A    between atoms: _291  and  _293
REMARK  111  A    between atoms: _293  and  _294
REMARK  112  A    between atoms: _293  and  _296
REMARK  113  A    between atoms: _296  and  _297
REMARK  114  A    between atoms: _297  and  _298
REMARK  115  A    between atoms: _298  and  _299
REMARK  116  A    between atoms: _299  and  _300
REMARK  117  A    between atoms: _304  and  _306
REMARK  118  A    between atoms: _306  and  _307
REMARK  119  A    between atoms: _306  and  _309
REMARK  120  A    between atoms: _309  and  _310
REMARK  121  A    between atoms: _310  and  _311
REMARK  122  A    between atoms: _314  and  _316
REMARK  123  A    between atoms: _316  and  _317
REMARK  124  A    between atoms: _316  and  _319
REMARK  125  A    between atoms: _322  and  _324
REMARK  126  A    between atoms: _324  and  _325
REMARK  127  A    between atoms: _324  and  _327
REMARK  128  A    between atoms: _327  and  _328
REMARK  129  A    between atoms: _338  and  _340
REMARK  130  A    between atoms: _340  and  _341
REMARK  131  A    between atoms: _340  and  _343
REMARK  132  A    between atoms: _343  and  _344
REMARK  133  A    between atoms: _344  and  _345
REMARK                            x       y       z     vdW  Elec       q    Type
REMARK                         _______ _______ _______ _____ _____    ______ ____
ROOT
ATOM      1  O   UNL     1      16.609  -4.868  23.422  0.00  0.00    +0.000 OA
ATOM      2  O   UNL     1      14.904  -4.875  23.338  0.00  0.00    +0.000 OA
ENDROOT
TORSDOF 0
REMARK  Name = ../refined-set-2016/3arv/3arv_pocket.pdb
REMARK  133 active torsions:
REMARK  status: ('A' for Active; 'I' for Inactive)
REMARK    1  A    between atoms: _1  and  _3
REMARK    2  A    between atoms: _3  and  _4
REMARK    3  A    between atoms: _3  and  _6
REMARK    4  A    between atoms: _6  and  _7
REMARK    5  A    between atoms: _17  and  _19
REMARK    6  A    between atoms: _19  and  _20
REMARK    7  A    between atoms: _19  and  _22
REMARK    8  A    between atoms: _22  and  _23
REMARK    9  A    between atoms: _29  and  _31
REMARK   10  A    between atoms: _31  and  _32
REMARK   11  A    between atoms: _31  and  _34
REMARK   12  A    between atoms: _34  and  _35
REMARK   13  A    between atoms: _37  and  _39
REMARK   14  A    between atoms: _39  and  _40
REMARK   15  A    between atoms: _39  and  _42
REMARK   16  A    between atoms: _45  and  _47
REMARK   17  A    between atoms: _47  and  _48
REMARK   18  A    between atoms: _47  and  _50
REMARK   19  A    between atoms: _50  and  _51
REMARK   20  A    between atoms: _53  and  _55
REMARK   21  A    between atoms: _55  and  _56
REMARK   22  A    between atoms: _55  and  _58
REMARK   23  A    between atoms: _61  and  _63
REMARK   24  A    between atoms: _63  and  _64
REMARK   25  A    between atoms: _66  and  _68
REMARK   26  A    between atoms: _68  and  _69
REMARK   27  A    between atoms: _68  and  _71
REMARK   28  A    between atoms: _71  and  _72
REMARK   29  A    between atoms: _82  and  _84
REMARK   30  A    between atoms: _84  and  _85
REMARK   31  A    between atoms: _84  and  _87
REMARK   32  A    between atoms: _87  and  _88
REMARK   33  A    between atoms: _91  and  _93
REMARK   34  A    between atoms: _93  and  _94
REMARK   35  A    between atoms: _93  and  _96
REMARK   36  A    between atoms: _96  and  _97
REMARK   37  A    between atoms: _100  and  _102
REMARK   38  A    between atoms: _102  and  _103
REMARK   39  A    between atoms: _102  and  _105
REMARK   40  A    between atoms: _105  and  _106
REMARK   41  A    between atoms: _106  and  _107
REMARK   42  A    between atoms: _110  and  _112
REMARK   43  A    between atoms: _112  and  _113
REMARK   44  A    between atoms: _112  and  _115
REMARK   45  A    between atoms: _115  and  _116
REMARK   46  A    between atoms: _122  and  _124
REMARK   47  A    between atoms: _124  and  _125
REMARK   48  A    between atoms: _127  and  _129
REMARK   49  A    between atoms: _129  and  _130
REMARK   50  A    between atoms: _132  and  _134
REMARK   51  A    between atoms: _134  and  _135
REMARK   52  A    between atoms: _138  and  _140
REMARK   53  A    between atoms: _140  and  _141
REMARK   54  A    between atoms: _140  and  _143
REMARK   55  A    between atoms: _143  and  _144
REMARK   56  A    between atoms: _144  and  _145
REMARK   57  A    between atoms: _145  and  _146
REMARK   58  A    between atoms: _146  and  _147
REMARK   59  A    between atoms: _151  and  _153
REMARK   60  A    between atoms: _153  and  _154
REMARK   61  A    between atoms: _153  and  _156
REMARK   62  A    between atoms: _156  and  _157
REMARK   63  A    between atoms: _157  and  _158
REMARK   64  A    between atoms: _160  and  _162
REMARK   65  A    between atoms: _162  and  _163
REMARK   66  A    between atoms: _162  and  _165
REMARK   67  A    between atoms: _165  and  _166
REMARK   68  A    between atoms: _171  and  _172
REMARK   69  A    between atoms: _174  and  _176
REMARK   70  A    between atoms: _176  and  _177
REMARK   71  A    between atoms: _176  and  _179
REMARK   72  A    between atoms: _179  and  _180
REMARK   73  A    between atoms: _183  and  _185
REMARK   74  A    between atoms: _185  and  _186
REMARK   75  A    between atoms: _185  and  _188
REMARK   76  A    between atoms: _188  and  _189
REMARK   77  A    between atoms: _195  and  _197
REMARK   78  A    between atoms: _197  and  _198
REMARK   79  A    between atoms: _197  and  _200
REMARK   80  A    between atoms: _200  and  _201
REMARK   81  A    between atoms: _206  and  _207
REMARK   82  A    between atoms: _209  and  _211
REMARK   83  A    between atoms: _211  and  _212
REMARK   84  A    between atoms: _214  and  _216
REMARK   85  A    between atoms: _216  and  _217
REMARK   86  A    between atoms: _219  and  _221
REMARK   87  A    between atoms: _221  and  _222
REMARK   88  A    between atoms: _221  and  _224
REMARK   89  A    between atoms: _224  and  _225
REMARK   90  A    between atoms: _235  and  _237
REMARK   91  A    between atoms: _237  and  _238
REMARK   92  A    between atoms: _237  and  _240
REMARK   93  A    between atoms: _240  and  _241
REMARK   94  A    between atoms: _246  and  _248
REMARK   95  A    between atoms: _248  and  _249
REMARK   96  A    between atoms: _248  and  _251
REMARK   97  A    between atoms: _251  and  _252
REMARK   98  A    between atoms: _257  and  _258
REMARK   99  A    between atoms: _260  and  _262
REMARK  100  A    between atoms: _262  and  _263
REMARK  101  A    between atoms: _262  and  _265
REMARK  102  A    between atoms: _265  and  _266
REMARK  103  A    between atoms: _271  and  _272
REMARK  104  A    between atoms: _274  and  _276
REMARK  105  A    between atoms: _276  and  _277
REMARK  106  A    between atoms: _276  and  _279
REMARK  107  A    between atoms: _279  and  _280
REMARK  108  A    between atoms: _280  and  _281
REMARK  109  A    between atoms: _281  and  _282
REMARK  110  A    between atoms: _291  and  _293
REMARK  111  A    between atoms: _293  and  _294
REMARK  112  A    between atoms: _293  and  _296
REMARK  113  A    between atoms: _296  and  _297
REMARK  114  A    between atoms: _297  and  _298
REMARK  115  A    between atoms: _298  and  _299
REMARK  116  A    between atoms: _299  and  _300
REMARK  117  A    between atoms: _304  and  _306
REMARK  118  A    between atoms: _306  and  _307
REMARK  119  A    between atoms: _306  and  _309
REMARK  120  A    between atoms: _309  and  _310
REMARK  121  A    between atoms: _310  and  _311
REMARK  122  A    between atoms: _314  and  _316
REMARK  123  A    between atoms: _316  and  _317
REMARK  124  A    between atoms: _316  and  _319
REMARK  125  A    between atoms: _322  and  _324
REMARK  126  A    between atoms: _324  and  _325
REMARK  127  A    between atoms: _324  and  _327
REMARK  128  A    between atoms: _327  and  _328
REMARK  129  A    between atoms: _338  and  _340
REMARK  130  A    between atoms: _340  and  _341
REMARK  131  A    between atoms: _340  and  _343
REMARK  132  A    between atoms: _343  and  _344
REMARK  133  A    between atoms: _344  and  _345
REMARK                            x       y       z     vdW  Elec       q    Type
REMARK                         _______ _______ _______ _____ _____    ______ ____
ROOT
ATOM      1  O   HOH     1      14.416 -15.760  26.145  0.00  0.00    +0.000 OA
ENDROOT
TORSDOF 0
REMARK  Name = ../refined-set-2016/3arv/3arv_pocket.pdb
REMARK  133 active torsions:
REMARK  status: ('A' for Active; 'I' for Inactive)
REMARK    1  A    between atoms: _1  and  _3
REMARK    2  A    between atoms: _3  and  _4
REMARK    3  A    between atoms: _3  and  _6
REMARK    4  A    between atoms: _6  and  _7
REMARK    5  A    between atoms: _17  and  _19
REMARK    6  A    between atoms: _19  and  _20
REMARK    7  A    between atoms: _19  and  _22
REMARK    8  A    between atoms: _22  and  _23
REMARK    9  A    between atoms: _29  and  _31
REMARK   10  A    between atoms: _31  and  _32
REMARK   11  A    between atoms: _31  and  _34
REMARK   12  A    between atoms: _34  and  _35
REMARK   13  A    between atoms: _37  and  _39
REMARK   14  A    between atoms: _39  and  _40
REMARK   15  A    between atoms: _39  and  _42
REMARK   16  A    between atoms: _45  and  _47
REMARK   17  A    between atoms: _47  and  _48
REMARK   18  A    between atoms: _47  and  _50
REMARK   19  A    between atoms: _50  and  _51
REMARK   20  A    between atoms: _53  and  _55
REMARK   21  A    between atoms: _55  and  _56
REMARK   22  A    between atoms: _55  and  _58
REMARK   23  A    between atoms: _61  and  _63
REMARK   24  A    between atoms: _63  and  _64
REMARK   25  A    between atoms: _66  and  _68
REMARK   26  A    between atoms: _68  and  _69
REMARK   27  A    between atoms: _68  and  _71
REMARK   28  A    between atoms: _71  and  _72
REMARK   29  A    between atoms: _82  and  _84
REMARK   30  A    between atoms: _84  and  _85
REMARK   31  A    between atoms: _84  and  _87
REMARK   32  A    between atoms: _87  and  _88
REMARK   33  A    between atoms: _91  and  _93
REMARK   34  A    between atoms: _93  and  _94
REMARK   35  A    between atoms: _93  and  _96
REMARK   36  A    between atoms: _96  and  _97
REMARK   37  A    between atoms: _100  and  _102
REMARK   38  A    between atoms: _102  and  _103
REMARK   39  A    between atoms: _102  and  _105
REMARK   40  A    between atoms: _105  and  _106
REMARK   41  A    between atoms: _106  and  _107
REMARK   42  A    between atoms: _110  and  _112
REMARK   43  A    between atoms: _112  and  _113
REMARK   44  A    between atoms: _112  and  _115
REMARK   45  A    between atoms: _115  and  _116
REMARK   46  A    between atoms: _122  and  _124
REMARK   47  A    between atoms: _124  and  _125
REMARK   48  A    between atoms: _127  and  _129
REMARK   49  A    between atoms: _129  and  _130
REMARK   50  A    between atoms: _132  and  _134
REMARK   51  A    between atoms: _134  and  _135
REMARK   52  A    between atoms: _138  and  _140
REMARK   53  A    between atoms: _140  and  _141
REMARK   54  A    between atoms: _140  and  _143
REMARK   55  A    between atoms: _143  and  _144
REMARK   56  A    between atoms: _144  and  _145
REMARK   57  A    between atoms: _145  and  _146
REMARK   58  A    between atoms: _146  and  _147
REMARK   59  A    between atoms: _151  and  _153
REMARK   60  A    between atoms: _153  and  _154
REMARK   61  A    between atoms: _153  and  _156
REMARK   62  A    between atoms: _156  and  _157
REMARK   63  A    between atoms: _157  and  _158
REMARK   64  A    between atoms: _160  and  _162
REMARK   65  A    between atoms: _162  and  _163
REMARK   66  A    between atoms: _162  and  _165
REMARK   67  A    between atoms: _165  and  _166
REMARK   68  A    between atoms: _171  and  _172
REMARK   69  A    between atoms: _174  and  _176
REMARK   70  A    between atoms: _176  and  _177
REMARK   71  A    between atoms: _176  and  _179
REMARK   72  A    between atoms: _179  and  _180
REMARK   73  A    between atoms: _183  and  _185
REMARK   74  A    between atoms: _185  and  _186
REMARK   75  A    between atoms: _185  and  _188
REMARK   76  A    between atoms: _188  and  _189
REMARK   77  A    between atoms: _195  and  _197
REMARK   78  A    between atoms: _197  and  _198
REMARK   79  A    between atoms: _197  and  _200
REMARK   80  A    between atoms: _200  and  _201
REMARK   81  A    between atoms: _206  and  _207
REMARK   82  A    between atoms: _209  and  _211
REMARK   83  A    between atoms: _211  and  _212
REMARK   84  A    between atoms: _214  and  _216
REMARK   85  A    between atoms: _216  and  _217
REMARK   86  A    between atoms: _219  and  _221
REMARK   87  A    between atoms: _221  and  _222
REMARK   88  A    between atoms: _221  and  _224
REMARK   89  A    between atoms: _224  and  _225
REMARK   90  A    between atoms: _235  and  _237
REMARK   91  A    between atoms: _237  and  _238
REMARK   92  A    between atoms: _237  and  _240
REMARK   93  A    between atoms: _240  and  _241
REMARK   94  A    between atoms: _246  and  _248
REMARK   95  A    between atoms: _248  and  _249
REMARK   96  A    between atoms: _248  and  _251
REMARK   97  A    between atoms: _251  and  _252
REMARK   98  A    between atoms: _257  and  _258
REMARK   99  A    between atoms: _260  and  _262
REMARK  100  A    between atoms: _262  and  _263
REMARK  101  A    between atoms: _262  and  _265
REMARK  102  A    between atoms: _265  and  _266
REMARK  103  A    between atoms: _271  and  _272
REMARK  104  A    between atoms: _274  and  _276
REMARK  105  A    between atoms: _276  and  _277
REMARK  106  A    between atoms: _276  and  _279
REMARK  107  A    between atoms: _279  and  _280
REMARK  108  A    between atoms: _280  and  _281
REMARK  109  A    between atoms: _281  and  _282
REMARK  110  A    between atoms: _291  and  _293
REMARK  111  A    between atoms: _293  and  _294
REMARK  112  A    between atoms: _293  and  _296
REMARK  113  A    between atoms: _296  and  _297
REMARK  114  A    between atoms: _297  and  _298
REMARK  115  A    between atoms: _298  and  _299
REMARK  116  A    between atoms: _299  and  _300
REMARK  117  A    between atoms: _304  and  _306
REMARK  118  A    between atoms: _306  and  _307
REMARK  119  A    between atoms: _306  and  _309
REMARK  120  A    between atoms: _309  and  _310
REMARK  121  A    between atoms: _310  and  _311
REMARK  122  A    between atoms: _314  and  _316
REMARK  123  A    between atoms: _316  and  _317
REMARK  124  A    between atoms: _316  and  _319
REMARK  125  A    between atoms: _322  and  _324
REMARK  126  A    between atoms: _324  and  _325
REMARK  127  A    between atoms: _324  and  _327
REMARK  128  A    between atoms: _327  and  _328
REMARK  129  A    between atoms: _338  and  _340
REMARK  130  A    between atoms: _340  and  _341
REMARK  131  A    between atoms: _340  and  _343
REMARK  132  A    between atoms: _343  and  _344
REMARK  133  A    between atoms: _344  and  _345
REMARK                            x       y       z     vdW  Elec       q    Type
REMARK                         _______ _______ _______ _____ _____    ______ ____
ROOT
ATOM      1  O   HOH     1      23.765  -6.029  15.103  0.00  0.00    +0.000 OA
ENDROOT
TORSDOF 0
REMARK  Name = ../refined-set-2016/3arv/3arv_pocket.pdb
REMARK  133 active torsions:
REMARK  status: ('A' for Active; 'I' for Inactive)
REMARK    1  A    between atoms: _1  and  _3
REMARK    2  A    between atoms: _3  and  _4
REMARK    3  A    between atoms: _3  and  _6
REMARK    4  A    between atoms: _6  and  _7
REMARK    5  A    between atoms: _17  and  _19
REMARK    6  A    between atoms: _19  and  _20
REMARK    7  A    between atoms: _19  and  _22
REMARK    8  A    between atoms: _22  and  _23
REMARK    9  A    between atoms: _29  and  _31
REMARK   10  A    between atoms: _31  and  _32
REMARK   11  A    between atoms: _31  and  _34
REMARK   12  A    between atoms: _34  and  _35
REMARK   13  A    between atoms: _37  and  _39
REMARK   14  A    between atoms: _39  and  _40
REMARK   15  A    between atoms: _39  and  _42
REMARK   16  A    between atoms: _45  and  _47
REMARK   17  A    between atoms: _47  and  _48
REMARK   18  A    between atoms: _47  and  _50
REMARK   19  A    between atoms: _50  and  _51
REMARK   20  A    between atoms: _53  and  _55
REMARK   21  A    between atoms: _55  and  _56
REMARK   22  A    between atoms: _55  and  _58
REMARK   23  A    between atoms: _61  and  _63
REMARK   24  A    between atoms: _63  and  _64
REMARK   25  A    between atoms: _66  and  _68
REMARK   26  A    between atoms: _68  and  _69
REMARK   27  A    between atoms: _68  and  _71
REMARK   28  A    between atoms: _71  and  _72
REMARK   29  A    between atoms: _82  and  _84
REMARK   30  A    between atoms: _84  and  _85
REMARK   31  A    between atoms: _84  and  _87
REMARK   32  A    between atoms: _87  and  _88
REMARK   33  A    between atoms: _91  and  _93
REMARK   34  A    between atoms: _93  and  _94
REMARK   35  A    between atoms: _93  and  _96
REMARK   36  A    between atoms: _96  and  _97
REMARK   37  A    between atoms: _100  and  _102
REMARK   38  A    between atoms: _102  and  _103
REMARK   39  A    between atoms: _102  and  _105
REMARK   40  A    between atoms: _105  and  _106
REMARK   41  A    between atoms: _106  and  _107
REMARK   42  A    between atoms: _110  and  _112
REMARK   43  A    between atoms: _112  and  _113
REMARK   44  A    between atoms: _112  and  _115
REMARK   45  A    between atoms: _115  and  _116
REMARK   46  A    between atoms: _122  and  _124
REMARK   47  A    between atoms: _124  and  _125
REMARK   48  A    between atoms: _127  and  _129
REMARK   49  A    between atoms: _129  and  _130
REMARK   50  A    between atoms: _132  and  _134
REMARK   51  A    between atoms: _134  and  _135
REMARK   52  A    between atoms: _138  and  _140
REMARK   53  A    between atoms: _140  and  _141
REMARK   54  A    between atoms: _140  and  _143
REMARK   55  A    between atoms: _143  and  _144
REMARK   56  A    between atoms: _144  and  _145
REMARK   57  A    between atoms: _145  and  _146
REMARK   58  A    between atoms: _146  and  _147
REMARK   59  A    between atoms: _151  and  _153
REMARK   60  A    between atoms: _153  and  _154
REMARK   61  A    between atoms: _153  and  _156
REMARK   62  A    between atoms: _156  and  _157
REMARK   63  A    between atoms: _157  and  _158
REMARK   64  A    between atoms: _160  and  _162
REMARK   65  A    between atoms: _162  and  _163
REMARK   66  A    between atoms: _162  and  _165
REMARK   67  A    between atoms: _165  and  _166
REMARK   68  A    between atoms: _171  and  _172
REMARK   69  A    between atoms: _174  and  _176
REMARK   70  A    between atoms: _176  and  _177
REMARK   71  A    between atoms: _176  and  _179
REMARK   72  A    between atoms: _179  and  _180
REMARK   73  A    between atoms: _183  and  _185
REMARK   74  A    between atoms: _185  and  _186
REMARK   75  A    between atoms: _185  and  _188
REMARK   76  A    between atoms: _188  and  _189
REMARK   77  A    between atoms: _195  and  _197
REMARK   78  A    between atoms: _197  and  _198
REMARK   79  A    between atoms: _197  and  _200
REMARK   80  A    between atoms: _200  and  _201
REMARK   81  A    between atoms: _206  and  _207
REMARK   82  A    between atoms: _209  and  _211
REMARK   83  A    between atoms: _211  and  _212
REMARK   84  A    between atoms: _214  and  _216
REMARK   85  A    between atoms: _216  and  _217
REMARK   86  A    between atoms: _219  and  _221
REMARK   87  A    between atoms: _221  and  _222
REMARK   88  A    between atoms: _221  and  _224
REMARK   89  A    between atoms: _224  and  _225
REMARK   90  A    between atoms: _235  and  _237
REMARK   91  A    between atoms: _237  and  _238
REMARK   92  A    between atoms: _237  and  _240
REMARK   93  A    between atoms: _240  and  _241
REMARK   94  A    between atoms: _246  and  _248
REMARK   95  A    between atoms: _248  and  _249
REMARK   96  A    between atoms: _248  and  _251
REMARK   97  A    between atoms: _251  and  _252
REMARK   98  A    between atoms: _257  and  _258
REMARK   99  A    between atoms: _260  and  _262
REMARK  100  A    between atoms: _262  and  _263
REMARK  101  A    between atoms: _262  and  _265
REMARK  102  A    between atoms: _265  and  _266
REMARK  103  A    between atoms: _271  and  _272
REMARK  104  A    between atoms: _274  and  _276
REMARK  105  A    between atoms: _276  and  _277
REMARK  106  A    between atoms: _276  and  _279
REMARK  107  A    between atoms: _279  and  _280
REMARK  108  A    between atoms: _280  and  _281
REMARK  109  A    between atoms: _281  and  _282
REMARK  110  A    between atoms: _291  and  _293
REMARK  111  A    between atoms: _293  and  _294
REMARK  112  A    between atoms: _293  and  _296
REMARK  113  A    between atoms: _296  and  _297
REMARK  114  A    between atoms: _297  and  _298
REMARK  115  A    between atoms: _298  and  _299
REMARK  116  A    between atoms: _299  and  _300
REMARK  117  A    between atoms: _304  and  _306
REMARK  118  A    between atoms: _306  and  _307
REMARK  119  A    between atoms: _306  and  _309
REMARK  120  A    between atoms: _309  and  _310
REMARK  121  A    between atoms: _310  and  _311
REMARK  122  A    between atoms: _314  and  _316
REMARK  123  A    between atoms: _316  and  _317
REMARK  124  A    between atoms: _316  and  _319
REMARK  125  A    between atoms: _322  and  _324
REMARK  126  A    between atoms: _324  and  _325
REMARK  127  A    between atoms: _324  and  _327
REMARK  128  A    between atoms: _327  and  _328
REMARK  129  A    between atoms: _338  and  _340
REMARK  130  A    between atoms: _340  and  _341
REMARK  131  A    between atoms: _340  and  _343
REMARK  132  A    between atoms: _343  and  _344
REMARK  133  A    between atoms: _344  and  _345
REMARK                            x       y       z     vdW  Elec       q    Type
REMARK                         _______ _______ _______ _____ _____    ______ ____
ROOT
ATOM      1  O   HOH     1      24.618  -8.617  14.454  0.00  0.00    +0.000 OA
ENDROOT
TORSDOF 0
REMARK  Name = ../refined-set-2016/3arv/3arv_pocket.pdb
REMARK  133 active torsions:
REMARK  status: ('A' for Active; 'I' for Inactive)
REMARK    1  A    between atoms: _1  and  _3
REMARK    2  A    between atoms: _3  and  _4
REMARK    3  A    between atoms: _3  and  _6
REMARK    4  A    between atoms: _6  and  _7
REMARK    5  A    between atoms: _17  and  _19
REMARK    6  A    between atoms: _19  and  _20
REMARK    7  A    between atoms: _19  and  _22
REMARK    8  A    between atoms: _22  and  _23
REMARK    9  A    between atoms: _29  and  _31
REMARK   10  A    between atoms: _31  and  _32
REMARK   11  A    between atoms: _31  and  _34
REMARK   12  A    between atoms: _34  and  _35
REMARK   13  A    between atoms: _37  and  _39
REMARK   14  A    between atoms: _39  and  _40
REMARK   15  A    between atoms: _39  and  _42
REMARK   16  A    between atoms: _45  and  _47
REMARK   17  A    between atoms: _47  and  _48
REMARK   18  A    between atoms: _47  and  _50
REMARK   19  A    between atoms: _50  and  _51
REMARK   20  A    between atoms: _53  and  _55
REMARK   21  A    between atoms: _55  and  _56
REMARK   22  A    between atoms: _55  and  _58
REMARK   23  A    between atoms: _61  and  _63
REMARK   24  A    between atoms: _63  and  _64
REMARK   25  A    between atoms: _66  and  _68
REMARK   26  A    between atoms: _68  and  _69
REMARK   27  A    between atoms: _68  and  _71
REMARK   28  A    between atoms: _71  and  _72
REMARK   29  A    between atoms: _82  and  _84
REMARK   30  A    between atoms: _84  and  _85
REMARK   31  A    between atoms: _84  and  _87
REMARK   32  A    between atoms: _87  and  _88
REMARK   33  A    between atoms: _91  and  _93
REMARK   34  A    between atoms: _93  and  _94
REMARK   35  A    between atoms: _93  and  _96
REMARK   36  A    between atoms: _96  and  _97
REMARK   37  A    between atoms: _100  and  _102
REMARK   38  A    between atoms: _102  and  _103
REMARK   39  A    between atoms: _102  and  _105
REMARK   40  A    between atoms: _105  and  _106
REMARK   41  A    between atoms: _106  and  _107
REMARK   42  A    between atoms: _110  and  _112
REMARK   43  A    between atoms: _112  and  _113
REMARK   44  A    between atoms: _112  and  _115
REMARK   45  A    between atoms: _115  and  _116
REMARK   46  A    between atoms: _122  and  _124
REMARK   47  A    between atoms: _124  and  _125
REMARK   48  A    between atoms: _127  and  _129
REMARK   49  A    between atoms: _129  and  _130
REMARK   50  A    between atoms: _132  and  _134
REMARK   51  A    between atoms: _134  and  _135
REMARK   52  A    between atoms: _138  and  _140
REMARK   53  A    between atoms: _140  and  _141
REMARK   54  A    between atoms: _140  and  _143
REMARK   55  A    between atoms: _143  and  _144
REMARK   56  A    between atoms: _144  and  _145
REMARK   57  A    between atoms: _145  and  _146
REMARK   58  A    between atoms: _146  and  _147
REMARK   59  A    between atoms: _151  and  _153
REMARK   60  A    between atoms: _153  and  _154
REMARK   61  A    between atoms: _153  and  _156
REMARK   62  A    between atoms: _156  and  _157
REMARK   63  A    between atoms: _157  and  _158
REMARK   64  A    between atoms: _160  and  _162
REMARK   65  A    between atoms: _162  and  _163
REMARK   66  A    between atoms: _162  and  _165
REMARK   67  A    between atoms: _165  and  _166
REMARK   68  A    between atoms: _171  and  _172
REMARK   69  A    between atoms: _174  and  _176
REMARK   70  A    between atoms: _176  and  _177
REMARK   71  A    between atoms: _176  and  _179
REMARK   72  A    between atoms: _179  and  _180
REMARK   73  A    between atoms: _183  and  _185
REMARK   74  A    between atoms: _185  and  _186
REMARK   75  A    between atoms: _185  and  _188
REMARK   76  A    between atoms: _188  and  _189
REMARK   77  A    between atoms: _195  and  _197
REMARK   78  A    between atoms: _197  and  _198
REMARK   79  A    between atoms: _197  and  _200
REMARK   80  A    between atoms: _200  and  _201
REMARK   81  A    between atoms: _206  and  _207
REMARK   82  A    between atoms: _209  and  _211
REMARK   83  A    between atoms: _211  and  _212
REMARK   84  A    between atoms: _214  and  _216
REMARK   85  A    between atoms: _216  and  _217
REMARK   86  A    between atoms: _219  and  _221
REMARK   87  A    between atoms: _221  and  _222
REMARK   88  A    between atoms: _221  and  _224
REMARK   89  A    between atoms: _224  and  _225
REMARK   90  A    between atoms: _235  and  _237
REMARK   91  A    between atoms: _237  and  _238
REMARK   92  A    between atoms: _237  and  _240
REMARK   93  A    between atoms: _240  and  _241
REMARK   94  A    between atoms: _246  and  _248
REMARK   95  A    between atoms: _248  and  _249
REMARK   96  A    between atoms: _248  and  _251
REMARK   97  A    between atoms: _251  and  _252
REMARK   98  A    between atoms: _257  and  _258
REMARK   99  A    between atoms: _260  and  _262
REMARK  100  A    between atoms: _262  and  _263
REMARK  101  A    between atoms: _262  and  _265
REMARK  102  A    between atoms: _265  and  _266
REMARK  103  A    between atoms: _271  and  _272
REMARK  104  A    between atoms: _274  and  _276
REMARK  105  A    between atoms: _276  and  _277
REMARK  106  A    between atoms: _276  and  _279
REMARK  107  A    between atoms: _279  and  _280
REMARK  108  A    between atoms: _280  and  _281
REMARK  109  A    between atoms: _281  and  _282
REMARK  110  A    between atoms: _291  and  _293
REMARK  111  A    between atoms: _293  and  _294
REMARK  112  A    between atoms: _293  and  _296
REMARK  113  A    between atoms: _296  and  _297
REMARK  114  A    between atoms: _297  and  _298
REMARK  115  A    between atoms: _298  and  _299
REMARK  116  A    between atoms: _299  and  _300
REMARK  117  A    between atoms: _304  and  _306
REMARK  118  A    between atoms: _306  and  _307
REMARK  119  A    between atoms: _306  and  _309
REMARK  120  A    between atoms: _309  and  _310
REMARK  121  A    between atoms: _310  and  _311
REMARK  122  A    between atoms: _314  and  _316
REMARK  123  A    between atoms: _316  and  _317
REMARK  124  A    between atoms: _316  and  _319
REMARK  125  A    between atoms: _322  and  _324
REMARK  126  A    between atoms: _324  and  _325
REMARK  127  A    between atoms: _324  and  _327
REMARK  128  A    between atoms: _327  and  _328
REMARK  129  A    between atoms: _338  and  _340
REMARK  130  A    between atoms: _340  and  _341
REMARK  131  A    between atoms: _340  and  _343
REMARK  132  A    between atoms: _343  and  _344
REMARK  133  A    between atoms: _344  and  _345
REMARK                            x       y       z     vdW  Elec       q    Type
REMARK                         _______ _______ _______ _____ _____    ______ ____
ROOT
ATOM      1  O   HOH     1       7.211 -11.987  21.821  0.00  0.00    +0.000 OA
ENDROOT
TORSDOF 0
REMARK  Name = ../refined-set-2016/3arv/3arv_pocket.pdb
REMARK  133 active torsions:
REMARK  status: ('A' for Active; 'I' for Inactive)
REMARK    1  A    between atoms: _1  and  _3
REMARK    2  A    between atoms: _3  and  _4
REMARK    3  A    between atoms: _3  and  _6
REMARK    4  A    between atoms: _6  and  _7
REMARK    5  A    between atoms: _17  and  _19
REMARK    6  A    between atoms: _19  and  _20
REMARK    7  A    between atoms: _19  and  _22
REMARK    8  A    between atoms: _22  and  _23
REMARK    9  A    between atoms: _29  and  _31
REMARK   10  A    between atoms: _31  and  _32
REMARK   11  A    between atoms: _31  and  _34
REMARK   12  A    between atoms: _34  and  _35
REMARK   13  A    between atoms: _37  and  _39
REMARK   14  A    between atoms: _39  and  _40
REMARK   15  A    between atoms: _39  and  _42
REMARK   16  A    between atoms: _45  and  _47
REMARK   17  A    between atoms: _47  and  _48
REMARK   18  A    between atoms: _47  and  _50
REMARK   19  A    between atoms: _50  and  _51
REMARK   20  A    between atoms: _53  and  _55
REMARK   21  A    between atoms: _55  and  _56
REMARK   22  A    between atoms: _55  and  _58
REMARK   23  A    between atoms: _61  and  _63
REMARK   24  A    between atoms: _63  and  _64
REMARK   25  A    between atoms: _66  and  _68
REMARK   26  A    between atoms: _68  and  _69
REMARK   27  A    between atoms: _68  and  _71
REMARK   28  A    between atoms: _71  and  _72
REMARK   29  A    between atoms: _82  and  _84
REMARK   30  A    between atoms: _84  and  _85
REMARK   31  A    between atoms: _84  and  _87
REMARK   32  A    between atoms: _87  and  _88
REMARK   33  A    between atoms: _91  and  _93
REMARK   34  A    between atoms: _93  and  _94
REMARK   35  A    between atoms: _93  and  _96
REMARK   36  A    between atoms: _96  and  _97
REMARK   37  A    between atoms: _100  and  _102
REMARK   38  A    between atoms: _102  and  _103
REMARK   39  A    between atoms: _102  and  _105
REMARK   40  A    between atoms: _105  and  _106
REMARK   41  A    between atoms: _106  and  _107
REMARK   42  A    between atoms: _110  and  _112
REMARK   43  A    between atoms: _112  and  _113
REMARK   44  A    between atoms: _112  and  _115
REMARK   45  A    between atoms: _115  and  _116
REMARK   46  A    between atoms: _122  and  _124
REMARK   47  A    between atoms: _124  and  _125
REMARK   48  A    between atoms: _127  and  _129
REMARK   49  A    between atoms: _129  and  _130
REMARK   50  A    between atoms: _132  and  _134
REMARK   51  A    between atoms: _134  and  _135
REMARK   52  A    between atoms: _138  and  _140
REMARK   53  A    between atoms: _140  and  _141
REMARK   54  A    between atoms: _140  and  _143
REMARK   55  A    between atoms: _143  and  _144
REMARK   56  A    between atoms: _144  and  _145
REMARK   57  A    between atoms: _145  and  _146
REMARK   58  A    between atoms: _146  and  _147
REMARK   59  A    between atoms: _151  and  _153
REMARK   60  A    between atoms: _153  and  _154
REMARK   61  A    between atoms: _153  and  _156
REMARK   62  A    between atoms: _156  and  _157
REMARK   63  A    between atoms: _157  and  _158
REMARK   64  A    between atoms: _160  and  _162
REMARK   65  A    between atoms: _162  and  _163
REMARK   66  A    between atoms: _162  and  _165
REMARK   67  A    between atoms: _165  and  _166
REMARK   68  A    between atoms: _171  and  _172
REMARK   69  A    between atoms: _174  and  _176
REMARK   70  A    between atoms: _176  and  _177
REMARK   71  A    between atoms: _176  and  _179
REMARK   72  A    between atoms: _179  and  _180
REMARK   73  A    between atoms: _183  and  _185
REMARK   74  A    between atoms: _185  and  _186
REMARK   75  A    between atoms: _185  and  _188
REMARK   76  A    between atoms: _188  and  _189
REMARK   77  A    between atoms: _195  and  _197
REMARK   78  A    between atoms: _197  and  _198
REMARK   79  A    between atoms: _197  and  _200
REMARK   80  A    between atoms: _200  and  _201
REMARK   81  A    between atoms: _206  and  _207
REMARK   82  A    between atoms: _209  and  _211
REMARK   83  A    between atoms: _211  and  _212
REMARK   84  A    between atoms: _214  and  _216
REMARK   85  A    between atoms: _216  and  _217
REMARK   86  A    between atoms: _219  and  _221
REMARK   87  A    between atoms: _221  and  _222
REMARK   88  A    between atoms: _221  and  _224
REMARK   89  A    between atoms: _224  and  _225
REMARK   90  A    between atoms: _235  and  _237
REMARK   91  A    between atoms: _237  and  _238
REMARK   92  A    between atoms: _237  and  _240
REMARK   93  A    between atoms: _240  and  _241
REMARK   94  A    between atoms: _246  and  _248
REMARK   95  A    between atoms: _248  and  _249
REMARK   96  A    between atoms: _248  and  _251
REMARK   97  A    between atoms: _251  and  _252
REMARK   98  A    between atoms: _257  and  _258
REMARK   99  A    between atoms: _260  and  _262
REMARK  100  A    between atoms: _262  and  _263
REMARK  101  A    between atoms: _262  and  _265
REMARK  102  A    between atoms: _265  and  _266
REMARK  103  A    between atoms: _271  and  _272
REMARK  104  A    between atoms: _274  and  _276
REMARK  105  A    between atoms: _276  and  _277
REMARK  106  A    between atoms: _276  and  _279
REMARK  107  A    between atoms: _279  and  _280
REMARK  108  A    between atoms: _280  and  _281
REMARK  109  A    between atoms: _281  and  _282
REMARK  110  A    between atoms: _291  and  _293
REMARK  111  A    between atoms: _293  and  _294
REMARK  112  A    between atoms: _293  and  _296
REMARK  113  A    between atoms: _296  and  _297
REMARK  114  A    between atoms: _297  and  _298
REMARK  115  A    between atoms: _298  and  _299
REMARK  116  A    between atoms: _299  and  _300
REMARK  117  A    between atoms: _304  and  _306
REMARK  118  A    between atoms: _306  and  _307
REMARK  119  A    between atoms: _306  and  _309
REMARK  120  A    between atoms: _309  and  _310
REMARK  121  A    between atoms: _310  and  _311
REMARK  122  A    between atoms: _314  and  _316
REMARK  123  A    between atoms: _316  and  _317
REMARK  124  A    between atoms: _316  and  _319
REMARK  125  A    between atoms: _322  and  _324
REMARK  126  A    between atoms: _324  and  _325
REMARK  127  A    between atoms: _324  and  _327
REMARK  128  A    between atoms: _327  and  _328
REMARK  129  A    between atoms: _338  and  _340
REMARK  130  A    between atoms: _340  and  _341
REMARK  131  A    between atoms: _340  and  _343
REMARK  132  A    between atoms: _343  and  _344
REMARK  133  A    between atoms: _344  and  _345
REMARK                            x       y       z     vdW  Elec       q    Type
REMARK                         _______ _______ _______ _____ _____    ______ ____
ROOT
ATOM      1  O   HOH     1       8.272  -2.500  26.339  0.00  0.00    +0.000 OA
ENDROOT
TORSDOF 0
REMARK  Name = ../refined-set-2016/3arv/3arv_pocket.pdb
REMARK  133 active torsions:
REMARK  status: ('A' for Active; 'I' for Inactive)
REMARK    1  A    between atoms: _1  and  _3
REMARK    2  A    between atoms: _3  and  _4
REMARK    3  A    between atoms: _3  and  _6
REMARK    4  A    between atoms: _6  and  _7
REMARK    5  A    between atoms: _17  and  _19
REMARK    6  A    between atoms: _19  and  _20
REMARK    7  A    between atoms: _19  and  _22
REMARK    8  A    between atoms: _22  and  _23
REMARK    9  A    between atoms: _29  and  _31
REMARK   10  A    between atoms: _31  and  _32
REMARK   11  A    between atoms: _31  and  _34
REMARK   12  A    between atoms: _34  and  _35
REMARK   13  A    between atoms: _37  and  _39
REMARK   14  A    between atoms: _39  and  _40
REMARK   15  A    between atoms: _39  and  _42
REMARK   16  A    between atoms: _45  and  _47
REMARK   17  A    between atoms: _47  and  _48
REMARK   18  A    between atoms: _47  and  _50
REMARK   19  A    between atoms: _50  and  _51
REMARK   20  A    between atoms: _53  and  _55
REMARK   21  A    between atoms: _55  and  _56
REMARK   22  A    between atoms: _55  and  _58
REMARK   23  A    between atoms: _61  and  _63
REMARK   24  A    between atoms: _63  and  _64
REMARK   25  A    between atoms: _66  and  _68
REMARK   26  A    between atoms: _68  and  _69
REMARK   27  A    between atoms: _68  and  _71
REMARK   28  A    between atoms: _71  and  _72
REMARK   29  A    between atoms: _82  and  _84
REMARK   30  A    between atoms: _84  and  _85
REMARK   31  A    between atoms: _84  and  _87
REMARK   32  A    between atoms: _87  and  _88
REMARK   33  A    between atoms: _91  and  _93
REMARK   34  A    between atoms: _93  and  _94
REMARK   35  A    between atoms: _93  and  _96
REMARK   36  A    between atoms: _96  and  _97
REMARK   37  A    between atoms: _100  and  _102
REMARK   38  A    between atoms: _102  and  _103
REMARK   39  A    between atoms: _102  and  _105
REMARK   40  A    between atoms: _105  and  _106
REMARK   41  A    between atoms: _106  and  _107
REMARK   42  A    between atoms: _110  and  _112
REMARK   43  A    between atoms: _112  and  _113
REMARK   44  A    between atoms: _112  and  _115
REMARK   45  A    between atoms: _115  and  _116
REMARK   46  A    between atoms: _122  and  _124
REMARK   47  A    between atoms: _124  and  _125
REMARK   48  A    between atoms: _127  and  _129
REMARK   49  A    between atoms: _129  and  _130
REMARK   50  A    between atoms: _132  and  _134
REMARK   51  A    between atoms: _134  and  _135
REMARK   52  A    between atoms: _138  and  _140
REMARK   53  A    between atoms: _140  and  _141
REMARK   54  A    between atoms: _140  and  _143
REMARK   55  A    between atoms: _143  and  _144
REMARK   56  A    between atoms: _144  and  _145
REMARK   57  A    between atoms: _145  and  _146
REMARK   58  A    between atoms: _146  and  _147
REMARK   59  A    between atoms: _151  and  _153
REMARK   60  A    between atoms: _153  and  _154
REMARK   61  A    between atoms: _153  and  _156
REMARK   62  A    between atoms: _156  and  _157
REMARK   63  A    between atoms: _157  and  _158
REMARK   64  A    between atoms: _160  and  _162
REMARK   65  A    between atoms: _162  and  _163
REMARK   66  A    between atoms: _162  and  _165
REMARK   67  A    between atoms: _165  and  _166
REMARK   68  A    between atoms: _171  and  _172
REMARK   69  A    between atoms: _174  and  _176
REMARK   70  A    between atoms: _176  and  _177
REMARK   71  A    between atoms: _176  and  _179
REMARK   72  A    between atoms: _179  and  _180
REMARK   73  A    between atoms: _183  and  _185
REMARK   74  A    between atoms: _185  and  _186
REMARK   75  A    between atoms: _185  and  _188
REMARK   76  A    between atoms: _188  and  _189
REMARK   77  A    between atoms: _195  and  _197
REMARK   78  A    between atoms: _197  and  _198
REMARK   79  A    between atoms: _197  and  _200
REMARK   80  A    between atoms: _200  and  _201
REMARK   81  A    between atoms: _206  and  _207
REMARK   82  A    between atoms: _209  and  _211
REMARK   83  A    between atoms: _211  and  _212
REMARK   84  A    between atoms: _214  and  _216
REMARK   85  A    between atoms: _216  and  _217
REMARK   86  A    between atoms: _219  and  _221
REMARK   87  A    between atoms: _221  and  _222
REMARK   88  A    between atoms: _221  and  _224
REMARK   89  A    between atoms: _224  and  _225
REMARK   90  A    between atoms: _235  and  _237
REMARK   91  A    between atoms: _237  and  _238
REMARK   92  A    between atoms: _237  and  _240
REMARK   93  A    between atoms: _240  and  _241
REMARK   94  A    between atoms: _246  and  _248
REMARK   95  A    between atoms: _248  and  _249
REMARK   96  A    between atoms: _248  and  _251
REMARK   97  A    between atoms: _251  and  _252
REMARK   98  A    between atoms: _257  and  _258
REMARK   99  A    between atoms: _260  and  _262
REMARK  100  A    between atoms: _262  and  _263
REMARK  101  A    between atoms: _262  and  _265
REMARK  102  A    between atoms: _265  and  _266
REMARK  103  A    between atoms: _271  and  _272
REMARK  104  A    between atoms: _274  and  _276
REMARK  105  A    between atoms: _276  and  _277
REMARK  106  A    between atoms: _276  and  _279
REMARK  107  A    between atoms: _279  and  _280
REMARK  108  A    between atoms: _280  and  _281
REMARK  109  A    between atoms: _281  and  _282
REMARK  110  A    between atoms: _291  and  _293
REMARK  111  A    between atoms: _293  and  _294
REMARK  112  A    between atoms: _293  and  _296
REMARK  113  A    between atoms: _296  and  _297
REMARK  114  A    between atoms: _297  and  _298
REMARK  115  A    between atoms: _298  and  _299
REMARK  116  A    between atoms: _299  and  _300
REMARK  117  A    between atoms: _304  and  _306
REMARK  118  A    between atoms: _306  and  _307
REMARK  119  A    between atoms: _306  and  _309
REMARK  120  A    between atoms: _309  and  _310
REMARK  121  A    between atoms: _310  and  _311
REMARK  122  A    between atoms: _314  and  _316
REMARK  123  A    between atoms: _316  and  _317
REMARK  124  A    between atoms: _316  and  _319
REMARK  125  A    between atoms: _322  and  _324
REMARK  126  A    between atoms: _324  and  _325
REMARK  127  A    between atoms: _324  and  _327
REMARK  128  A    between atoms: _327  and  _328
REMARK  129  A    between atoms: _338  and  _340
REMARK  130  A    between atoms: _340  and  _341
REMARK  131  A    between atoms: _340  and  _343
REMARK  132  A    between atoms: _343  and  _344
REMARK  133  A    between atoms: _344  and  _345
REMARK                            x       y       z     vdW  Elec       q    Type
REMARK                         _______ _______ _______ _____ _____    ______ ____
ROOT
ATOM      1  O   HOH     1      18.769 -11.586  16.254  0.00  0.00    +0.000 OA
ENDROOT
TORSDOF 0
REMARK  Name = ../refined-set-2016/3arv/3arv_pocket.pdb
REMARK  133 active torsions:
REMARK  status: ('A' for Active; 'I' for Inactive)
REMARK    1  A    between atoms: _1  and  _3
REMARK    2  A    between atoms: _3  and  _4
REMARK    3  A    between atoms: _3  and  _6
REMARK    4  A    between atoms: _6  and  _7
REMARK    5  A    between atoms: _17  and  _19
REMARK    6  A    between atoms: _19  and  _20
REMARK    7  A    between atoms: _19  and  _22
REMARK    8  A    between atoms: _22  and  _23
REMARK    9  A    between atoms: _29  and  _31
REMARK   10  A    between atoms: _31  and  _32
REMARK   11  A    between atoms: _31  and  _34
REMARK   12  A    between atoms: _34  and  _35
REMARK   13  A    between atoms: _37  and  _39
REMARK   14  A    between atoms: _39  and  _40
REMARK   15  A    between atoms: _39  and  _42
REMARK   16  A    between atoms: _45  and  _47
REMARK   17  A    between atoms: _47  and  _48
REMARK   18  A    between atoms: _47  and  _50
REMARK   19  A    between atoms: _50  and  _51
REMARK   20  A    between atoms: _53  and  _55
REMARK   21  A    between atoms: _55  and  _56
REMARK   22  A    between atoms: _55  and  _58
REMARK   23  A    between atoms: _61  and  _63
REMARK   24  A    between atoms: _63  and  _64
REMARK   25  A    between atoms: _66  and  _68
REMARK   26  A    between atoms: _68  and  _69
REMARK   27  A    between atoms: _68  and  _71
REMARK   28  A    between atoms: _71  and  _72
REMARK   29  A    between atoms: _82  and  _84
REMARK   30  A    between atoms: _84  and  _85
REMARK   31  A    between atoms: _84  and  _87
REMARK   32  A    between atoms: _87  and  _88
REMARK   33  A    between atoms: _91  and  _93
REMARK   34  A    between atoms: _93  and  _94
REMARK   35  A    between atoms: _93  and  _96
REMARK   36  A    between atoms: _96  and  _97
REMARK   37  A    between atoms: _100  and  _102
REMARK   38  A    between atoms: _102  and  _103
REMARK   39  A    between atoms: _102  and  _105
REMARK   40  A    between atoms: _105  and  _106
REMARK   41  A    between atoms: _106  and  _107
REMARK   42  A    between atoms: _110  and  _112
REMARK   43  A    between atoms: _112  and  _113
REMARK   44  A    between atoms: _112  and  _115
REMARK   45  A    between atoms: _115  and  _116
REMARK   46  A    between atoms: _122  and  _124
REMARK   47  A    between atoms: _124  and  _125
REMARK   48  A    between atoms: _127  and  _129
REMARK   49  A    between atoms: _129  and  _130
REMARK   50  A    between atoms: _132  and  _134
REMARK   51  A    between atoms: _134  and  _135
REMARK   52  A    between atoms: _138  and  _140
REMARK   53  A    between atoms: _140  and  _141
REMARK   54  A    between atoms: _140  and  _143
REMARK   55  A    between atoms: _143  and  _144
REMARK   56  A    between atoms: _144  and  _145
REMARK   57  A    between atoms: _145  and  _146
REMARK   58  A    between atoms: _146  and  _147
REMARK   59  A    between atoms: _151  and  _153
REMARK   60  A    between atoms: _153  and  _154
REMARK   61  A    between atoms: _153  and  _156
REMARK   62  A    between atoms: _156  and  _157
REMARK   63  A    between atoms: _157  and  _158
REMARK   64  A    between atoms: _160  and  _162
REMARK   65  A    between atoms: _162  and  _163
REMARK   66  A    between atoms: _162  and  _165
REMARK   67  A    between atoms: _165  and  _166
REMARK   68  A    between atoms: _171  and  _172
REMARK   69  A    between atoms: _174  and  _176
REMARK   70  A    between atoms: _176  and  _177
REMARK   71  A    between atoms: _176  and  _179
REMARK   72  A    between atoms: _179  and  _180
REMARK   73  A    between atoms: _183  and  _185
REMARK   74  A    between atoms: _185  and  _186
REMARK   75  A    between atoms: _185  and  _188
REMARK   76  A    between atoms: _188  and  _189
REMARK   77  A    between atoms: _195  and  _197
REMARK   78  A    between atoms: _197  and  _198
REMARK   79  A    between atoms: _197  and  _200
REMARK   80  A    between atoms: _200  and  _201
REMARK   81  A    between atoms: _206  and  _207
REMARK   82  A    between atoms: _209  and  _211
REMARK   83  A    between atoms: _211  and  _212
REMARK   84  A    between atoms: _214  and  _216
REMARK   85  A    between atoms: _216  and  _217
REMARK   86  A    between atoms: _219  and  _221
REMARK   87  A    between atoms: _221  and  _222
REMARK   88  A    between atoms: _221  and  _224
REMARK   89  A    between atoms: _224  and  _225
REMARK   90  A    between atoms: _235  and  _237
REMARK   91  A    between atoms: _237  and  _238
REMARK   92  A    between atoms: _237  and  _240
REMARK   93  A    between atoms: _240  and  _241
REMARK   94  A    between atoms: _246  and  _248
REMARK   95  A    between atoms: _248  and  _249
REMARK   96  A    between atoms: _248  and  _251
REMARK   97  A    between atoms: _251  and  _252
REMARK   98  A    between atoms: _257  and  _258
REMARK   99  A    between atoms: _260  and  _262
REMARK  100  A    between atoms: _262  and  _263
REMARK  101  A    between atoms: _262  and  _265
REMARK  102  A    between atoms: _265  and  _266
REMARK  103  A    between atoms: _271  and  _272
REMARK  104  A    between atoms: _274  and  _276
REMARK  105  A    between atoms: _276  and  _277
REMARK  106  A    between atoms: _276  and  _279
REMARK  107  A    between atoms: _279  and  _280
REMARK  108  A    between atoms: _280  and  _281
REMARK  109  A    between atoms: _281  and  _282
REMARK  110  A    between atoms: _291  and  _293
REMARK  111  A    between atoms: _293  and  _294
REMARK  112  A    between atoms: _293  and  _296
REMARK  113  A    between atoms: _296  and  _297
REMARK  114  A    between atoms: _297  and  _298
REMARK  115  A    between atoms: _298  and  _299
REMARK  116  A    between atoms: _299  and  _300
REMARK  117  A    between atoms: _304  and  _306
REMARK  118  A    between atoms: _306  and  _307
REMARK  119  A    between atoms: _306  and  _309
REMARK  120  A    between atoms: _309  and  _310
REMARK  121  A    between atoms: _310  and  _311
REMARK  122  A    between atoms: _314  and  _316
REMARK  123  A    between atoms: _316  and  _317
REMARK  124  A    between atoms: _316  and  _319
REMARK  125  A    between atoms: _322  and  _324
REMARK  126  A    between atoms: _324  and  _325
REMARK  127  A    between atoms: _324  and  _327
REMARK  128  A    between atoms: _327  and  _328
REMARK  129  A    between atoms: _338  and  _340
REMARK  130  A    between atoms: _340  and  _341
REMARK  131  A    between atoms: _340  and  _343
REMARK  132  A    between atoms: _343  and  _344
REMARK  133  A    between atoms: _344  and  _345
REMARK                            x       y       z     vdW  Elec       q    Type
REMARK                         _______ _______ _______ _____ _____    ______ ____
ROOT
ATOM      1  O   HOH     1      20.156  -2.438  22.605  0.00  0.00    +0.000 OA
ENDROOT
TORSDOF 0
REMARK  Name = ../refined-set-2016/3arv/3arv_pocket.pdb
REMARK  133 active torsions:
REMARK  status: ('A' for Active; 'I' for Inactive)
REMARK    1  A    between atoms: _1  and  _3
REMARK    2  A    between atoms: _3  and  _4
REMARK    3  A    between atoms: _3  and  _6
REMARK    4  A    between atoms: _6  and  _7
REMARK    5  A    between atoms: _17  and  _19
REMARK    6  A    between atoms: _19  and  _20
REMARK    7  A    between atoms: _19  and  _22
REMARK    8  A    between atoms: _22  and  _23
REMARK    9  A    between atoms: _29  and  _31
REMARK   10  A    between atoms: _31  and  _32
REMARK   11  A    between atoms: _31  and  _34
REMARK   12  A    between atoms: _34  and  _35
REMARK   13  A    between atoms: _37  and  _39
REMARK   14  A    between atoms: _39  and  _40
REMARK   15  A    between atoms: _39  and  _42
REMARK   16  A    between atoms: _45  and  _47
REMARK   17  A    between atoms: _47  and  _48
REMARK   18  A    between atoms: _47  and  _50
REMARK   19  A    between atoms: _50  and  _51
REMARK   20  A    between atoms: _53  and  _55
REMARK   21  A    between atoms: _55  and  _56
REMARK   22  A    between atoms: _55  and  _58
REMARK   23  A    between atoms: _61  and  _63
REMARK   24  A    between atoms: _63  and  _64
REMARK   25  A    between atoms: _66  and  _68
REMARK   26  A    between atoms: _68  and  _69
REMARK   27  A    between atoms: _68  and  _71
REMARK   28  A    between atoms: _71  and  _72
REMARK   29  A    between atoms: _82  and  _84
REMARK   30  A    between atoms: _84  and  _85
REMARK   31  A    between atoms: _84  and  _87
REMARK   32  A    between atoms: _87  and  _88
REMARK   33  A    between atoms: _91  and  _93
REMARK   34  A    between atoms: _93  and  _94
REMARK   35  A    between atoms: _93  and  _96
REMARK   36  A    between atoms: _96  and  _97
REMARK   37  A    between atoms: _100  and  _102
REMARK   38  A    between atoms: _102  and  _103
REMARK   39  A    between atoms: _102  and  _105
REMARK   40  A    between atoms: _105  and  _106
REMARK   41  A    between atoms: _106  and  _107
REMARK   42  A    between atoms: _110  and  _112
REMARK   43  A    between atoms: _112  and  _113
REMARK   44  A    between atoms: _112  and  _115
REMARK   45  A    between atoms: _115  and  _116
REMARK   46  A    between atoms: _122  and  _124
REMARK   47  A    between atoms: _124  and  _125
REMARK   48  A    between atoms: _127  and  _129
REMARK   49  A    between atoms: _129  and  _130
REMARK   50  A    between atoms: _132  and  _134
REMARK   51  A    between atoms: _134  and  _135
REMARK   52  A    between atoms: _138  and  _140
REMARK   53  A    between atoms: _140  and  _141
REMARK   54  A    between atoms: _140  and  _143
REMARK   55  A    between atoms: _143  and  _144
REMARK   56  A    between atoms: _144  and  _145
REMARK   57  A    between atoms: _145  and  _146
REMARK   58  A    between atoms: _146  and  _147
REMARK   59  A    between atoms: _151  and  _153
REMARK   60  A    between atoms: _153  and  _154
REMARK   61  A    between atoms: _153  and  _156
REMARK   62  A    between atoms: _156  and  _157
REMARK   63  A    between atoms: _157  and  _158
REMARK   64  A    between atoms: _160  and  _162
REMARK   65  A    between atoms: _162  and  _163
REMARK   66  A    between atoms: _162  and  _165
REMARK   67  A    between atoms: _165  and  _166
REMARK   68  A    between atoms: _171  and  _172
REMARK   69  A    between atoms: _174  and  _176
REMARK   70  A    between atoms: _176  and  _177
REMARK   71  A    between atoms: _176  and  _179
REMARK   72  A    between atoms: _179  and  _180
REMARK   73  A    between atoms: _183  and  _185
REMARK   74  A    between atoms: _185  and  _186
REMARK   75  A    between atoms: _185  and  _188
REMARK   76  A    between atoms: _188  and  _189
REMARK   77  A    between atoms: _195  and  _197
REMARK   78  A    between atoms: _197  and  _198
REMARK   79  A    between atoms: _197  and  _200
REMARK   80  A    between atoms: _200  and  _201
REMARK   81  A    between atoms: _206  and  _207
REMARK   82  A    between atoms: _209  and  _211
REMARK   83  A    between atoms: _211  and  _212
REMARK   84  A    between atoms: _214  and  _216
REMARK   85  A    between atoms: _216  and  _217
REMARK   86  A    between atoms: _219  and  _221
REMARK   87  A    between atoms: _221  and  _222
REMARK   88  A    between atoms: _221  and  _224
REMARK   89  A    between atoms: _224  and  _225
REMARK   90  A    between atoms: _235  and  _237
REMARK   91  A    between atoms: _237  and  _238
REMARK   92  A    between atoms: _237  and  _240
REMARK   93  A    between atoms: _240  and  _241
REMARK   94  A    between atoms: _246  and  _248
REMARK   95  A    between atoms: _248  and  _249
REMARK   96  A    between atoms: _248  and  _251
REMARK   97  A    between atoms: _251  and  _252
REMARK   98  A    between atoms: _257  and  _258
REMARK   99  A    between atoms: _260  and  _262
REMARK  100  A    between atoms: _262  and  _263
REMARK  101  A    between atoms: _262  and  _265
REMARK  102  A    between atoms: _265  and  _266
REMARK  103  A    between atoms: _271  and  _272
REMARK  104  A    between atoms: _274  and  _276
REMARK  105  A    between atoms: _276  and  _277
REMARK  106  A    between atoms: _276  and  _279
REMARK  107  A    between atoms: _279  and  _280
REMARK  108  A    between atoms: _280  and  _281
REMARK  109  A    between atoms: _281  and  _282
REMARK  110  A    between atoms: _291  and  _293
REMARK  111  A    between atoms: _293  and  _294
REMARK  112  A    between atoms: _293  and  _296
REMARK  113  A    between atoms: _296  and  _297
REMARK  114  A    between atoms: _297  and  _298
REMARK  115  A    between atoms: _298  and  _299
REMARK  116  A    between atoms: _299  and  _300
REMARK  117  A    between atoms: _304  and  _306
REMARK  118  A    between atoms: _306  and  _307
REMARK  119  A    between atoms: _306  and  _309
REMARK  120  A    between atoms: _309  and  _310
REMARK  121  A    between atoms: _310  and  _311
REMARK  122  A    between atoms: _314  and  _316
REMARK  123  A    between atoms: _316  and  _317
REMARK  124  A    between atoms: _316  and  _319
REMARK  125  A    between atoms: _322  and  _324
REMARK  126  A    between atoms: _324  and  _325
REMARK  127  A    between atoms: _324  and  _327
REMARK  128  A    between atoms: _327  and  _328
REMARK  129  A    between atoms: _338  and  _340
REMARK  130  A    between atoms: _340  and  _341
REMARK  131  A    between atoms: _340  and  _343
REMARK  132  A    between atoms: _343  and  _344
REMARK  133  A    between atoms: _344  and  _345
REMARK                            x       y       z     vdW  Elec       q    Type
REMARK                         _______ _______ _______ _____ _____    ______ ____
ROOT
ATOM      1  O   HOH     1       8.654 -11.623  28.305  0.00  0.00    +0.000 OA
ENDROOT
TORSDOF 0
REMARK  Name = ../refined-set-2016/3arv/3arv_pocket.pdb
REMARK  133 active torsions:
REMARK  status: ('A' for Active; 'I' for Inactive)
REMARK    1  A    between atoms: _1  and  _3
REMARK    2  A    between atoms: _3  and  _4
REMARK    3  A    between atoms: _3  and  _6
REMARK    4  A    between atoms: _6  and  _7
REMARK    5  A    between atoms: _17  and  _19
REMARK    6  A    between atoms: _19  and  _20
REMARK    7  A    between atoms: _19  and  _22
REMARK    8  A    between atoms: _22  and  _23
REMARK    9  A    between atoms: _29  and  _31
REMARK   10  A    between atoms: _31  and  _32
REMARK   11  A    between atoms: _31  and  _34
REMARK   12  A    between atoms: _34  and  _35
REMARK   13  A    between atoms: _37  and  _39
REMARK   14  A    between atoms: _39  and  _40
REMARK   15  A    between atoms: _39  and  _42
REMARK   16  A    between atoms: _45  and  _47
REMARK   17  A    between atoms: _47  and  _48
REMARK   18  A    between atoms: _47  and  _50
REMARK   19  A    between atoms: _50  and  _51
REMARK   20  A    between atoms: _53  and  _55
REMARK   21  A    between atoms: _55  and  _56
REMARK   22  A    between atoms: _55  and  _58
REMARK   23  A    between atoms: _61  and  _63
REMARK   24  A    between atoms: _63  and  _64
REMARK   25  A    between atoms: _66  and  _68
REMARK   26  A    between atoms: _68  and  _69
REMARK   27  A    between atoms: _68  and  _71
REMARK   28  A    between atoms: _71  and  _72
REMARK   29  A    between atoms: _82  and  _84
REMARK   30  A    between atoms: _84  and  _85
REMARK   31  A    between atoms: _84  and  _87
REMARK   32  A    between atoms: _87  and  _88
REMARK   33  A    between atoms: _91  and  _93
REMARK   34  A    between atoms: _93  and  _94
REMARK   35  A    between atoms: _93  and  _96
REMARK   36  A    between atoms: _96  and  _97
REMARK   37  A    between atoms: _100  and  _102
REMARK   38  A    between atoms: _102  and  _103
REMARK   39  A    between atoms: _102  and  _105
REMARK   40  A    between atoms: _105  and  _106
REMARK   41  A    between atoms: _106  and  _107
REMARK   42  A    between atoms: _110  and  _112
REMARK   43  A    between atoms: _112  and  _113
REMARK   44  A    between atoms: _112  and  _115
REMARK   45  A    between atoms: _115  and  _116
REMARK   46  A    between atoms: _122  and  _124
REMARK   47  A    between atoms: _124  and  _125
REMARK   48  A    between atoms: _127  and  _129
REMARK   49  A    between atoms: _129  and  _130
REMARK   50  A    between atoms: _132  and  _134
REMARK   51  A    between atoms: _134  and  _135
REMARK   52  A    between atoms: _138  and  _140
REMARK   53  A    between atoms: _140  and  _141
REMARK   54  A    between atoms: _140  and  _143
REMARK   55  A    between atoms: _143  and  _144
REMARK   56  A    between atoms: _144  and  _145
REMARK   57  A    between atoms: _145  and  _146
REMARK   58  A    between atoms: _146  and  _147
REMARK   59  A    between atoms: _151  and  _153
REMARK   60  A    between atoms: _153  and  _154
REMARK   61  A    between atoms: _153  and  _156
REMARK   62  A    between atoms: _156  and  _157
REMARK   63  A    between atoms: _157  and  _158
REMARK   64  A    between atoms: _160  and  _162
REMARK   65  A    between atoms: _162  and  _163
REMARK   66  A    between atoms: _162  and  _165
REMARK   67  A    between atoms: _165  and  _166
REMARK   68  A    between atoms: _171  and  _172
REMARK   69  A    between atoms: _174  and  _176
REMARK   70  A    between atoms: _176  and  _177
REMARK   71  A    between atoms: _176  and  _179
REMARK   72  A    between atoms: _179  and  _180
REMARK   73  A    between atoms: _183  and  _185
REMARK   74  A    between atoms: _185  and  _186
REMARK   75  A    between atoms: _185  and  _188
REMARK   76  A    between atoms: _188  and  _189
REMARK   77  A    between atoms: _195  and  _197
REMARK   78  A    between atoms: _197  and  _198
REMARK   79  A    between atoms: _197  and  _200
REMARK   80  A    between atoms: _200  and  _201
REMARK   81  A    between atoms: _206  and  _207
REMARK   82  A    between atoms: _209  and  _211
REMARK   83  A    between atoms: _211  and  _212
REMARK   84  A    between atoms: _214  and  _216
REMARK   85  A    between atoms: _216  and  _217
REMARK   86  A    between atoms: _219  and  _221
REMARK   87  A    between atoms: _221  and  _222
REMARK   88  A    between atoms: _221  and  _224
REMARK   89  A    between atoms: _224  and  _225
REMARK   90  A    between atoms: _235  and  _237
REMARK   91  A    between atoms: _237  and  _238
REMARK   92  A    between atoms: _237  and  _240
REMARK   93  A    between atoms: _240  and  _241
REMARK   94  A    between atoms: _246  and  _248
REMARK   95  A    between atoms: _248  and  _249
REMARK   96  A    between atoms: _248  and  _251
REMARK   97  A    between atoms: _251  and  _252
REMARK   98  A    between atoms: _257  and  _258
REMARK   99  A    between atoms: _260  and  _262
REMARK  100  A    between atoms: _262  and  _263
REMARK  101  A    between atoms: _262  and  _265
REMARK  102  A    between atoms: _265  and  _266
REMARK  103  A    between atoms: _271  and  _272
REMARK  104  A    between atoms: _274  and  _276
REMARK  105  A    between atoms: _276  and  _277
REMARK  106  A    between atoms: _276  and  _279
REMARK  107  A    between atoms: _279  and  _280
REMARK  108  A    between atoms: _280  and  _281
REMARK  109  A    between atoms: _281  and  _282
REMARK  110  A    between atoms: _291  and  _293
REMARK  111  A    between atoms: _293  and  _294
REMARK  112  A    between atoms: _293  and  _296
REMARK  113  A    between atoms: _296  and  _297
REMARK  114  A    between atoms: _297  and  _298
REMARK  115  A    between atoms: _298  and  _299
REMARK  116  A    between atoms: _299  and  _300
REMARK  117  A    between atoms: _304  and  _306
REMARK  118  A    between atoms: _306  and  _307
REMARK  119  A    between atoms: _306  and  _309
REMARK  120  A    between atoms: _309  and  _310
REMARK  121  A    between atoms: _310  and  _311
REMARK  122  A    between atoms: _314  and  _316
REMARK  123  A    between atoms: _316  and  _317
REMARK  124  A    between atoms: _316  and  _319
REMARK  125  A    between atoms: _322  and  _324
REMARK  126  A    between atoms: _324  and  _325
REMARK  127  A    between atoms: _324  and  _327
REMARK  128  A    between atoms: _327  and  _328
REMARK  129  A    between atoms: _338  and  _340
REMARK  130  A    between atoms: _340  and  _341
REMARK  131  A    between atoms: _340  and  _343
REMARK  132  A    between atoms: _343  and  _344
REMARK  133  A    between atoms: _344  and  _345
REMARK                            x       y       z     vdW  Elec       q    Type
REMARK                         _______ _______ _______ _____ _____    ______ ____
ROOT
ATOM      1  O   HOH     1       9.351 -10.618  23.947  0.00  0.00    +0.000 OA
ENDROOT
TORSDOF 0
REMARK  Name = ../refined-set-2016/3arv/3arv_pocket.pdb
REMARK  133 active torsions:
REMARK  status: ('A' for Active; 'I' for Inactive)
REMARK    1  A    between atoms: _1  and  _3
REMARK    2  A    between atoms: _3  and  _4
REMARK    3  A    between atoms: _3  and  _6
REMARK    4  A    between atoms: _6  and  _7
REMARK    5  A    between atoms: _17  and  _19
REMARK    6  A    between atoms: _19  and  _20
REMARK    7  A    between atoms: _19  and  _22
REMARK    8  A    between atoms: _22  and  _23
REMARK    9  A    between atoms: _29  and  _31
REMARK   10  A    between atoms: _31  and  _32
REMARK   11  A    between atoms: _31  and  _34
REMARK   12  A    between atoms: _34  and  _35
REMARK   13  A    between atoms: _37  and  _39
REMARK   14  A    between atoms: _39  and  _40
REMARK   15  A    between atoms: _39  and  _42
REMARK   16  A    between atoms: _45  and  _47
REMARK   17  A    between atoms: _47  and  _48
REMARK   18  A    between atoms: _47  and  _50
REMARK   19  A    between atoms: _50  and  _51
REMARK   20  A    between atoms: _53  and  _55
REMARK   21  A    between atoms: _55  and  _56
REMARK   22  A    between atoms: _55  and  _58
REMARK   23  A    between atoms: _61  and  _63
REMARK   24  A    between atoms: _63  and  _64
REMARK   25  A    between atoms: _66  and  _68
REMARK   26  A    between atoms: _68  and  _69
REMARK   27  A    between atoms: _68  and  _71
REMARK   28  A    between atoms: _71  and  _72
REMARK   29  A    between atoms: _82  and  _84
REMARK   30  A    between atoms: _84  and  _85
REMARK   31  A    between atoms: _84  and  _87
REMARK   32  A    between atoms: _87  and  _88
REMARK   33  A    between atoms: _91  and  _93
REMARK   34  A    between atoms: _93  and  _94
REMARK   35  A    between atoms: _93  and  _96
REMARK   36  A    between atoms: _96  and  _97
REMARK   37  A    between atoms: _100  and  _102
REMARK   38  A    between atoms: _102  and  _103
REMARK   39  A    between atoms: _102  and  _105
REMARK   40  A    between atoms: _105  and  _106
REMARK   41  A    between atoms: _106  and  _107
REMARK   42  A    between atoms: _110  and  _112
REMARK   43  A    between atoms: _112  and  _113
REMARK   44  A    between atoms: _112  and  _115
REMARK   45  A    between atoms: _115  and  _116
REMARK   46  A    between atoms: _122  and  _124
REMARK   47  A    between atoms: _124  and  _125
REMARK   48  A    between atoms: _127  and  _129
REMARK   49  A    between atoms: _129  and  _130
REMARK   50  A    between atoms: _132  and  _134
REMARK   51  A    between atoms: _134  and  _135
REMARK   52  A    between atoms: _138  and  _140
REMARK   53  A    between atoms: _140  and  _141
REMARK   54  A    between atoms: _140  and  _143
REMARK   55  A    between atoms: _143  and  _144
REMARK   56  A    between atoms: _144  and  _145
REMARK   57  A    between atoms: _145  and  _146
REMARK   58  A    between atoms: _146  and  _147
REMARK   59  A    between atoms: _151  and  _153
REMARK   60  A    between atoms: _153  and  _154
REMARK   61  A    between atoms: _153  and  _156
REMARK   62  A    between atoms: _156  and  _157
REMARK   63  A    between atoms: _157  and  _158
REMARK   64  A    between atoms: _160  and  _162
REMARK   65  A    between atoms: _162  and  _163
REMARK   66  A    between atoms: _162  and  _165
REMARK   67  A    between atoms: _165  and  _166
REMARK   68  A    between atoms: _171  and  _172
REMARK   69  A    between atoms: _174  and  _176
REMARK   70  A    between atoms: _176  and  _177
REMARK   71  A    between atoms: _176  and  _179
REMARK   72  A    between atoms: _179  and  _180
REMARK   73  A    between atoms: _183  and  _185
REMARK   74  A    between atoms: _185  and  _186
REMARK   75  A    between atoms: _185  and  _188
REMARK   76  A    between atoms: _188  and  _189
REMARK   77  A    between atoms: _195  and  _197
REMARK   78  A    between atoms: _197  and  _198
REMARK   79  A    between atoms: _197  and  _200
REMARK   80  A    between atoms: _200  and  _201
REMARK   81  A    between atoms: _206  and  _207
REMARK   82  A    between atoms: _209  and  _211
REMARK   83  A    between atoms: _211  and  _212
REMARK   84  A    between atoms: _214  and  _216
REMARK   85  A    between atoms: _216  and  _217
REMARK   86  A    between atoms: _219  and  _221
REMARK   87  A    between atoms: _221  and  _222
REMARK   88  A    between atoms: _221  and  _224
REMARK   89  A    between atoms: _224  and  _225
REMARK   90  A    between atoms: _235  and  _237
REMARK   91  A    between atoms: _237  and  _238
REMARK   92  A    between atoms: _237  and  _240
REMARK   93  A    between atoms: _240  and  _241
REMARK   94  A    between atoms: _246  and  _248
REMARK   95  A    between atoms: _248  and  _249
REMARK   96  A    between atoms: _248  and  _251
REMARK   97  A    between atoms: _251  and  _252
REMARK   98  A    between atoms: _257  and  _258
REMARK   99  A    between atoms: _260  and  _262
REMARK  100  A    between atoms: _262  and  _263
REMARK  101  A    between atoms: _262  and  _265
REMARK  102  A    between atoms: _265  and  _266
REMARK  103  A    between atoms: _271  and  _272
REMARK  104  A    between atoms: _274  and  _276
REMARK  105  A    between atoms: _276  and  _277
REMARK  106  A    between atoms: _276  and  _279
REMARK  107  A    between atoms: _279  and  _280
REMARK  108  A    between atoms: _280  and  _281
REMARK  109  A    between atoms: _281  and  _282
REMARK  110  A    between atoms: _291  and  _293
REMARK  111  A    between atoms: _293  and  _294
REMARK  112  A    between atoms: _293  and  _296
REMARK  113  A    between atoms: _296  and  _297
REMARK  114  A    between atoms: _297  and  _298
REMARK  115  A    between atoms: _298  and  _299
REMARK  116  A    between atoms: _299  and  _300
REMARK  117  A    between atoms: _304  and  _306
REMARK  118  A    between atoms: _306  and  _307
REMARK  119  A    between atoms: _306  and  _309
REMARK  120  A    between atoms: _309  and  _310
REMARK  121  A    between atoms: _310  and  _311
REMARK  122  A    between atoms: _314  and  _316
REMARK  123  A    between atoms: _316  and  _317
REMARK  124  A    between atoms: _316  and  _319
REMARK  125  A    between atoms: _322  and  _324
REMARK  126  A    between atoms: _324  and  _325
REMARK  127  A    between atoms: _324  and  _327
REMARK  128  A    between atoms: _327  and  _328
REMARK  129  A    between atoms: _338  and  _340
REMARK  130  A    between atoms: _340  and  _341
REMARK  131  A    between atoms: _340  and  _343
REMARK  132  A    between atoms: _343  and  _344
REMARK  133  A    between atoms: _344  and  _345
REMARK                            x       y       z     vdW  Elec       q    Type
REMARK                         _______ _______ _______ _____ _____    ______ ____
ROOT
ATOM      1  O   HOH     1      22.698 -10.192  13.474  0.00  0.00    +0.000 OA
ENDROOT
TORSDOF 0
REMARK  Name = ../refined-set-2016/3arv/3arv_pocket.pdb
REMARK  133 active torsions:
REMARK  status: ('A' for Active; 'I' for Inactive)
REMARK    1  A    between atoms: _1  and  _3
REMARK    2  A    between atoms: _3  and  _4
REMARK    3  A    between atoms: _3  and  _6
REMARK    4  A    between atoms: _6  and  _7
REMARK    5  A    between atoms: _17  and  _19
REMARK    6  A    between atoms: _19  and  _20
REMARK    7  A    between atoms: _19  and  _22
REMARK    8  A    between atoms: _22  and  _23
REMARK    9  A    between atoms: _29  and  _31
REMARK   10  A    between atoms: _31  and  _32
REMARK   11  A    between atoms: _31  and  _34
REMARK   12  A    between atoms: _34  and  _35
REMARK   13  A    between atoms: _37  and  _39
REMARK   14  A    between atoms: _39  and  _40
REMARK   15  A    between atoms: _39  and  _42
REMARK   16  A    between atoms: _45  and  _47
REMARK   17  A    between atoms: _47  and  _48
REMARK   18  A    between atoms: _47  and  _50
REMARK   19  A    between atoms: _50  and  _51
REMARK   20  A    between atoms: _53  and  _55
REMARK   21  A    between atoms: _55  and  _56
REMARK   22  A    between atoms: _55  and  _58
REMARK   23  A    between atoms: _61  and  _63
REMARK   24  A    between atoms: _63  and  _64
REMARK   25  A    between atoms: _66  and  _68
REMARK   26  A    between atoms: _68  and  _69
REMARK   27  A    between atoms: _68  and  _71
REMARK   28  A    between atoms: _71  and  _72
REMARK   29  A    between atoms: _82  and  _84
REMARK   30  A    between atoms: _84  and  _85
REMARK   31  A    between atoms: _84  and  _87
REMARK   32  A    between atoms: _87  and  _88
REMARK   33  A    between atoms: _91  and  _93
REMARK   34  A    between atoms: _93  and  _94
REMARK   35  A    between atoms: _93  and  _96
REMARK   36  A    between atoms: _96  and  _97
REMARK   37  A    between atoms: _100  and  _102
REMARK   38  A    between atoms: _102  and  _103
REMARK   39  A    between atoms: _102  and  _105
REMARK   40  A    between atoms: _105  and  _106
REMARK   41  A    between atoms: _106  and  _107
REMARK   42  A    between atoms: _110  and  _112
REMARK   43  A    between atoms: _112  and  _113
REMARK   44  A    between atoms: _112  and  _115
REMARK   45  A    between atoms: _115  and  _116
REMARK   46  A    between atoms: _122  and  _124
REMARK   47  A    between atoms: _124  and  _125
REMARK   48  A    between atoms: _127  and  _129
REMARK   49  A    between atoms: _129  and  _130
REMARK   50  A    between atoms: _132  and  _134
REMARK   51  A    between atoms: _134  and  _135
REMARK   52  A    between atoms: _138  and  _140
REMARK   53  A    between atoms: _140  and  _141
REMARK   54  A    between atoms: _140  and  _143
REMARK   55  A    between atoms: _143  and  _144
REMARK   56  A    between atoms: _144  and  _145
REMARK   57  A    between atoms: _145  and  _146
REMARK   58  A    between atoms: _146  and  _147
REMARK   59  A    between atoms: _151  and  _153
REMARK   60  A    between atoms: _153  and  _154
REMARK   61  A    between atoms: _153  and  _156
REMARK   62  A    between atoms: _156  and  _157
REMARK   63  A    between atoms: _157  and  _158
REMARK   64  A    between atoms: _160  and  _162
REMARK   65  A    between atoms: _162  and  _163
REMARK   66  A    between atoms: _162  and  _165
REMARK   67  A    between atoms: _165  and  _166
REMARK   68  A    between atoms: _171  and  _172
REMARK   69  A    between atoms: _174  and  _176
REMARK   70  A    between atoms: _176  and  _177
REMARK   71  A    between atoms: _176  and  _179
REMARK   72  A    between atoms: _179  and  _180
REMARK   73  A    between atoms: _183  and  _185
REMARK   74  A    between atoms: _185  and  _186
REMARK   75  A    between atoms: _185  and  _188
REMARK   76  A    between atoms: _188  and  _189
REMARK   77  A    between atoms: _195  and  _197
REMARK   78  A    between atoms: _197  and  _198
REMARK   79  A    between atoms: _197  and  _200
REMARK   80  A    between atoms: _200  and  _201
REMARK   81  A    between atoms: _206  and  _207
REMARK   82  A    between atoms: _209  and  _211
REMARK   83  A    between atoms: _211  and  _212
REMARK   84  A    between atoms: _214  and  _216
REMARK   85  A    between atoms: _216  and  _217
REMARK   86  A    between atoms: _219  and  _221
REMARK   87  A    between atoms: _221  and  _222
REMARK   88  A    between atoms: _221  and  _224
REMARK   89  A    between atoms: _224  and  _225
REMARK   90  A    between atoms: _235  and  _237
REMARK   91  A    between atoms: _237  and  _238
REMARK   92  A    between atoms: _237  and  _240
REMARK   93  A    between atoms: _240  and  _241
REMARK   94  A    between atoms: _246  and  _248
REMARK   95  A    between atoms: _248  and  _249
REMARK   96  A    between atoms: _248  and  _251
REMARK   97  A    between atoms: _251  and  _252
REMARK   98  A    between atoms: _257  and  _258
REMARK   99  A    between atoms: _260  and  _262
REMARK  100  A    between atoms: _262  and  _263
REMARK  101  A    between atoms: _262  and  _265
REMARK  102  A    between atoms: _265  and  _266
REMARK  103  A    between atoms: _271  and  _272
REMARK  104  A    between atoms: _274  and  _276
REMARK  105  A    between atoms: _276  and  _277
REMARK  106  A    between atoms: _276  and  _279
REMARK  107  A    between atoms: _279  and  _280
REMARK  108  A    between atoms: _280  and  _281
REMARK  109  A    between atoms: _281  and  _282
REMARK  110  A    between atoms: _291  and  _293
REMARK  111  A    between atoms: _293  and  _294
REMARK  112  A    between atoms: _293  and  _296
REMARK  113  A    between atoms: _296  and  _297
REMARK  114  A    between atoms: _297  and  _298
REMARK  115  A    between atoms: _298  and  _299
REMARK  116  A    between atoms: _299  and  _300
REMARK  117  A    between atoms: _304  and  _306
REMARK  118  A    between atoms: _306  and  _307
REMARK  119  A    between atoms: _306  and  _309
REMARK  120  A    between atoms: _309  and  _310
REMARK  121  A    between atoms: _310  and  _311
REMARK  122  A    between atoms: _314  and  _316
REMARK  123  A    between atoms: _316  and  _317
REMARK  124  A    between atoms: _316  and  _319
REMARK  125  A    between atoms: _322  and  _324
REMARK  126  A    between atoms: _324  and  _325
REMARK  127  A    between atoms: _324  and  _327
REMARK  128  A    between atoms: _327  and  _328
REMARK  129  A    between atoms: _338  and  _340
REMARK  130  A    between atoms: _340  and  _341
REMARK  131  A    between atoms: _340  and  _343
REMARK  132  A    between atoms: _343  and  _344
REMARK  133  A    between atoms: _344  and  _345
REMARK                            x       y       z     vdW  Elec       q    Type
REMARK                         _______ _______ _______ _____ _____    ______ ____
ROOT
ATOM      1  O   HOH     1      21.188 -17.608  24.754  0.00  0.00    +0.000 OA
ENDROOT
TORSDOF 0
REMARK  Name = ../refined-set-2016/3arv/3arv_pocket.pdb
REMARK  133 active torsions:
REMARK  status: ('A' for Active; 'I' for Inactive)
REMARK    1  A    between atoms: _1  and  _3
REMARK    2  A    between atoms: _3  and  _4
REMARK    3  A    between atoms: _3  and  _6
REMARK    4  A    between atoms: _6  and  _7
REMARK    5  A    between atoms: _17  and  _19
REMARK    6  A    between atoms: _19  and  _20
REMARK    7  A    between atoms: _19  and  _22
REMARK    8  A    between atoms: _22  and  _23
REMARK    9  A    between atoms: _29  and  _31
REMARK   10  A    between atoms: _31  and  _32
REMARK   11  A    between atoms: _31  and  _34
REMARK   12  A    between atoms: _34  and  _35
REMARK   13  A    between atoms: _37  and  _39
REMARK   14  A    between atoms: _39  and  _40
REMARK   15  A    between atoms: _39  and  _42
REMARK   16  A    between atoms: _45  and  _47
REMARK   17  A    between atoms: _47  and  _48
REMARK   18  A    between atoms: _47  and  _50
REMARK   19  A    between atoms: _50  and  _51
REMARK   20  A    between atoms: _53  and  _55
REMARK   21  A    between atoms: _55  and  _56
REMARK   22  A    between atoms: _55  and  _58
REMARK   23  A    between atoms: _61  and  _63
REMARK   24  A    between atoms: _63  and  _64
REMARK   25  A    between atoms: _66  and  _68
REMARK   26  A    between atoms: _68  and  _69
REMARK   27  A    between atoms: _68  and  _71
REMARK   28  A    between atoms: _71  and  _72
REMARK   29  A    between atoms: _82  and  _84
REMARK   30  A    between atoms: _84  and  _85
REMARK   31  A    between atoms: _84  and  _87
REMARK   32  A    between atoms: _87  and  _88
REMARK   33  A    between atoms: _91  and  _93
REMARK   34  A    between atoms: _93  and  _94
REMARK   35  A    between atoms: _93  and  _96
REMARK   36  A    between atoms: _96  and  _97
REMARK   37  A    between atoms: _100  and  _102
REMARK   38  A    between atoms: _102  and  _103
REMARK   39  A    between atoms: _102  and  _105
REMARK   40  A    between atoms: _105  and  _106
REMARK   41  A    between atoms: _106  and  _107
REMARK   42  A    between atoms: _110  and  _112
REMARK   43  A    between atoms: _112  and  _113
REMARK   44  A    between atoms: _112  and  _115
REMARK   45  A    between atoms: _115  and  _116
REMARK   46  A    between atoms: _122  and  _124
REMARK   47  A    between atoms: _124  and  _125
REMARK   48  A    between atoms: _127  and  _129
REMARK   49  A    between atoms: _129  and  _130
REMARK   50  A    between atoms: _132  and  _134
REMARK   51  A    between atoms: _134  and  _135
REMARK   52  A    between atoms: _138  and  _140
REMARK   53  A    between atoms: _140  and  _141
REMARK   54  A    between atoms: _140  and  _143
REMARK   55  A    between atoms: _143  and  _144
REMARK   56  A    between atoms: _144  and  _145
REMARK   57  A    between atoms: _145  and  _146
REMARK   58  A    between atoms: _146  and  _147
REMARK   59  A    between atoms: _151  and  _153
REMARK   60  A    between atoms: _153  and  _154
REMARK   61  A    between atoms: _153  and  _156
REMARK   62  A    between atoms: _156  and  _157
REMARK   63  A    between atoms: _157  and  _158
REMARK   64  A    between atoms: _160  and  _162
REMARK   65  A    between atoms: _162  and  _163
REMARK   66  A    between atoms: _162  and  _165
REMARK   67  A    between atoms: _165  and  _166
REMARK   68  A    between atoms: _171  and  _172
REMARK   69  A    between atoms: _174  and  _176
REMARK   70  A    between atoms: _176  and  _177
REMARK   71  A    between atoms: _176  and  _179
REMARK   72  A    between atoms: _179  and  _180
REMARK   73  A    between atoms: _183  and  _185
REMARK   74  A    between atoms: _185  and  _186
REMARK   75  A    between atoms: _185  and  _188
REMARK   76  A    between atoms: _188  and  _189
REMARK   77  A    between atoms: _195  and  _197
REMARK   78  A    between atoms: _197  and  _198
REMARK   79  A    between atoms: _197  and  _200
REMARK   80  A    between atoms: _200  and  _201
REMARK   81  A    between atoms: _206  and  _207
REMARK   82  A    between atoms: _209  and  _211
REMARK   83  A    between atoms: _211  and  _212
REMARK   84  A    between atoms: _214  and  _216
REMARK   85  A    between atoms: _216  and  _217
REMARK   86  A    between atoms: _219  and  _221
REMARK   87  A    between atoms: _221  and  _222
REMARK   88  A    between atoms: _221  and  _224
REMARK   89  A    between atoms: _224  and  _225
REMARK   90  A    between atoms: _235  and  _237
REMARK   91  A    between atoms: _237  and  _238
REMARK   92  A    between atoms: _237  and  _240
REMARK   93  A    between atoms: _240  and  _241
REMARK   94  A    between atoms: _246  and  _248
REMARK   95  A    between atoms: _248  and  _249
REMARK   96  A    between atoms: _248  and  _251
REMARK   97  A    between atoms: _251  and  _252
REMARK   98  A    between atoms: _257  and  _258
REMARK   99  A    between atoms: _260  and  _262
REMARK  100  A    between atoms: _262  and  _263
REMARK  101  A    between atoms: _262  and  _265
REMARK  102  A    between atoms: _265  and  _266
REMARK  103  A    between atoms: _271  and  _272
REMARK  104  A    between atoms: _274  and  _276
REMARK  105  A    between atoms: _276  and  _277
REMARK  106  A    between atoms: _276  and  _279
REMARK  107  A    between atoms: _279  and  _280
REMARK  108  A    between atoms: _280  and  _281
REMARK  109  A    between atoms: _281  and  _282
REMARK  110  A    between atoms: _291  and  _293
REMARK  111  A    between atoms: _293  and  _294
REMARK  112  A    between atoms: _293  and  _296
REMARK  113  A    between atoms: _296  and  _297
REMARK  114  A    between atoms: _297  and  _298
REMARK  115  A    between atoms: _298  and  _299
REMARK  116  A    between atoms: _299  and  _300
REMARK  117  A    between atoms: _304  and  _306
REMARK  118  A    between atoms: _306  and  _307
REMARK  119  A    between atoms: _306  and  _309
REMARK  120  A    between atoms: _309  and  _310
REMARK  121  A    between atoms: _310  and  _311
REMARK  122  A    between atoms: _314  and  _316
REMARK  123  A    between atoms: _316  and  _317
REMARK  124  A    between atoms: _316  and  _319
REMARK  125  A    between atoms: _322  and  _324
REMARK  126  A    between atoms: _324  and  _325
REMARK  127  A    between atoms: _324  and  _327
REMARK  128  A    between atoms: _327  and  _328
REMARK  129  A    between atoms: _338  and  _340
REMARK  130  A    between atoms: _340  and  _341
REMARK  131  A    between atoms: _340  and  _343
REMARK  132  A    between atoms: _343  and  _344
REMARK  133  A    between atoms: _344  and  _345
REMARK                            x       y       z     vdW  Elec       q    Type
REMARK                         _______ _______ _______ _____ _____    ______ ____
ROOT
ATOM      1  O   HOH     1      12.453  -0.686  24.980  0.00  0.00    +0.000 OA
ENDROOT
TORSDOF 0
REMARK  Name = ../refined-set-2016/3arv/3arv_pocket.pdb
REMARK  133 active torsions:
REMARK  status: ('A' for Active; 'I' for Inactive)
REMARK    1  A    between atoms: _1  and  _3
REMARK    2  A    between atoms: _3  and  _4
REMARK    3  A    between atoms: _3  and  _6
REMARK    4  A    between atoms: _6  and  _7
REMARK    5  A    between atoms: _17  and  _19
REMARK    6  A    between atoms: _19  and  _20
REMARK    7  A    between atoms: _19  and  _22
REMARK    8  A    between atoms: _22  and  _23
REMARK    9  A    between atoms: _29  and  _31
REMARK   10  A    between atoms: _31  and  _32
REMARK   11  A    between atoms: _31  and  _34
REMARK   12  A    between atoms: _34  and  _35
REMARK   13  A    between atoms: _37  and  _39
REMARK   14  A    between atoms: _39  and  _40
REMARK   15  A    between atoms: _39  and  _42
REMARK   16  A    between atoms: _45  and  _47
REMARK   17  A    between atoms: _47  and  _48
REMARK   18  A    between atoms: _47  and  _50
REMARK   19  A    between atoms: _50  and  _51
REMARK   20  A    between atoms: _53  and  _55
REMARK   21  A    between atoms: _55  and  _56
REMARK   22  A    between atoms: _55  and  _58
REMARK   23  A    between atoms: _61  and  _63
REMARK   24  A    between atoms: _63  and  _64
REMARK   25  A    between atoms: _66  and  _68
REMARK   26  A    between atoms: _68  and  _69
REMARK   27  A    between atoms: _68  and  _71
REMARK   28  A    between atoms: _71  and  _72
REMARK   29  A    between atoms: _82  and  _84
REMARK   30  A    between atoms: _84  and  _85
REMARK   31  A    between atoms: _84  and  _87
REMARK   32  A    between atoms: _87  and  _88
REMARK   33  A    between atoms: _91  and  _93
REMARK   34  A    between atoms: _93  and  _94
REMARK   35  A    between atoms: _93  and  _96
REMARK   36  A    between atoms: _96  and  _97
REMARK   37  A    between atoms: _100  and  _102
REMARK   38  A    between atoms: _102  and  _103
REMARK   39  A    between atoms: _102  and  _105
REMARK   40  A    between atoms: _105  and  _106
REMARK   41  A    between atoms: _106  and  _107
REMARK   42  A    between atoms: _110  and  _112
REMARK   43  A    between atoms: _112  and  _113
REMARK   44  A    between atoms: _112  and  _115
REMARK   45  A    between atoms: _115  and  _116
REMARK   46  A    between atoms: _122  and  _124
REMARK   47  A    between atoms: _124  and  _125
REMARK   48  A    between atoms: _127  and  _129
REMARK   49  A    between atoms: _129  and  _130
REMARK   50  A    between atoms: _132  and  _134
REMARK   51  A    between atoms: _134  and  _135
REMARK   52  A    between atoms: _138  and  _140
REMARK   53  A    between atoms: _140  and  _141
REMARK   54  A    between atoms: _140  and  _143
REMARK   55  A    between atoms: _143  and  _144
REMARK   56  A    between atoms: _144  and  _145
REMARK   57  A    between atoms: _145  and  _146
REMARK   58  A    between atoms: _146  and  _147
REMARK   59  A    between atoms: _151  and  _153
REMARK   60  A    between atoms: _153  and  _154
REMARK   61  A    between atoms: _153  and  _156
REMARK   62  A    between atoms: _156  and  _157
REMARK   63  A    between atoms: _157  and  _158
REMARK   64  A    between atoms: _160  and  _162
REMARK   65  A    between atoms: _162  and  _163
REMARK   66  A    between atoms: _162  and  _165
REMARK   67  A    between atoms: _165  and  _166
REMARK   68  A    between atoms: _171  and  _172
REMARK   69  A    between atoms: _174  and  _176
REMARK   70  A    between atoms: _176  and  _177
REMARK   71  A    between atoms: _176  and  _179
REMARK   72  A    between atoms: _179  and  _180
REMARK   73  A    between atoms: _183  and  _185
REMARK   74  A    between atoms: _185  and  _186
REMARK   75  A    between atoms: _185  and  _188
REMARK   76  A    between atoms: _188  and  _189
REMARK   77  A    between atoms: _195  and  _197
REMARK   78  A    between atoms: _197  and  _198
REMARK   79  A    between atoms: _197  and  _200
REMARK   80  A    between atoms: _200  and  _201
REMARK   81  A    between atoms: _206  and  _207
REMARK   82  A    between atoms: _209  and  _211
REMARK   83  A    between atoms: _211  and  _212
REMARK   84  A    between atoms: _214  and  _216
REMARK   85  A    between atoms: _216  and  _217
REMARK   86  A    between atoms: _219  and  _221
REMARK   87  A    between atoms: _221  and  _222
REMARK   88  A    between atoms: _221  and  _224
REMARK   89  A    between atoms: _224  and  _225
REMARK   90  A    between atoms: _235  and  _237
REMARK   91  A    between atoms: _237  and  _238
REMARK   92  A    between atoms: _237  and  _240
REMARK   93  A    between atoms: _240  and  _241
REMARK   94  A    between atoms: _246  and  _248
REMARK   95  A    between atoms: _248  and  _249
REMARK   96  A    between atoms: _248  and  _251
REMARK   97  A    between atoms: _251  and  _252
REMARK   98  A    between atoms: _257  and  _258
REMARK   99  A    between atoms: _260  and  _262
REMARK  100  A    between atoms: _262  and  _263
REMARK  101  A    between atoms: _262  and  _265
REMARK  102  A    between atoms: _265  and  _266
REMARK  103  A    between atoms: _271  and  _272
REMARK  104  A    between atoms: _274  and  _276
REMARK  105  A    between atoms: _276  and  _277
REMARK  106  A    between atoms: _276  and  _279
REMARK  107  A    between atoms: _279  and  _280
REMARK  108  A    between atoms: _280  and  _281
REMARK  109  A    between atoms: _281  and  _282
REMARK  110  A    between atoms: _291  and  _293
REMARK  111  A    between atoms: _293  and  _294
REMARK  112  A    between atoms: _293  and  _296
REMARK  113  A    between atoms: _296  and  _297
REMARK  114  A    between atoms: _297  and  _298
REMARK  115  A    between atoms: _298  and  _299
REMARK  116  A    between atoms: _299  and  _300
REMARK  117  A    between atoms: _304  and  _306
REMARK  118  A    between atoms: _306  and  _307
REMARK  119  A    between atoms: _306  and  _309
REMARK  120  A    between atoms: _309  and  _310
REMARK  121  A    between atoms: _310  and  _311
REMARK  122  A    between atoms: _314  and  _316
REMARK  123  A    between atoms: _316  and  _317
REMARK  124  A    between atoms: _316  and  _319
REMARK  125  A    between atoms: _322  and  _324
REMARK  126  A    between atoms: _324  and  _325
REMARK  127  A    between atoms: _324  and  _327
REMARK  128  A    between atoms: _327  and  _328
REMARK  129  A    between atoms: _338  and  _340
REMARK  130  A    between atoms: _340  and  _341
REMARK  131  A    between atoms: _340  and  _343
REMARK  132  A    between atoms: _343  and  _344
REMARK  133  A    between atoms: _344  and  _345
REMARK                            x       y       z     vdW  Elec       q    Type
REMARK                         _______ _______ _______ _____ _____    ______ ____
ROOT
ATOM      1  O   HOH     1      20.547  -5.165  23.636  0.00  0.00    +0.000 OA
ENDROOT
TORSDOF 0
REMARK  Name = ../refined-set-2016/3arv/3arv_pocket.pdb
REMARK  133 active torsions:
REMARK  status: ('A' for Active; 'I' for Inactive)
REMARK    1  A    between atoms: _1  and  _3
REMARK    2  A    between atoms: _3  and  _4
REMARK    3  A    between atoms: _3  and  _6
REMARK    4  A    between atoms: _6  and  _7
REMARK    5  A    between atoms: _17  and  _19
REMARK    6  A    between atoms: _19  and  _20
REMARK    7  A    between atoms: _19  and  _22
REMARK    8  A    between atoms: _22  and  _23
REMARK    9  A    between atoms: _29  and  _31
REMARK   10  A    between atoms: _31  and  _32
REMARK   11  A    between atoms: _31  and  _34
REMARK   12  A    between atoms: _34  and  _35
REMARK   13  A    between atoms: _37  and  _39
REMARK   14  A    between atoms: _39  and  _40
REMARK   15  A    between atoms: _39  and  _42
REMARK   16  A    between atoms: _45  and  _47
REMARK   17  A    between atoms: _47  and  _48
REMARK   18  A    between atoms: _47  and  _50
REMARK   19  A    between atoms: _50  and  _51
REMARK   20  A    between atoms: _53  and  _55
REMARK   21  A    between atoms: _55  and  _56
REMARK   22  A    between atoms: _55  and  _58
REMARK   23  A    between atoms: _61  and  _63
REMARK   24  A    between atoms: _63  and  _64
REMARK   25  A    between atoms: _66  and  _68
REMARK   26  A    between atoms: _68  and  _69
REMARK   27  A    between atoms: _68  and  _71
REMARK   28  A    between atoms: _71  and  _72
REMARK   29  A    between atoms: _82  and  _84
REMARK   30  A    between atoms: _84  and  _85
REMARK   31  A    between atoms: _84  and  _87
REMARK   32  A    between atoms: _87  and  _88
REMARK   33  A    between atoms: _91  and  _93
REMARK   34  A    between atoms: _93  and  _94
REMARK   35  A    between atoms: _93  and  _96
REMARK   36  A    between atoms: _96  and  _97
REMARK   37  A    between atoms: _100  and  _102
REMARK   38  A    between atoms: _102  and  _103
REMARK   39  A    between atoms: _102  and  _105
REMARK   40  A    between atoms: _105  and  _106
REMARK   41  A    between atoms: _106  and  _107
REMARK   42  A    between atoms: _110  and  _112
REMARK   43  A    between atoms: _112  and  _113
REMARK   44  A    between atoms: _112  and  _115
REMARK   45  A    between atoms: _115  and  _116
REMARK   46  A    between atoms: _122  and  _124
REMARK   47  A    between atoms: _124  and  _125
REMARK   48  A    between atoms: _127  and  _129
REMARK   49  A    between atoms: _129  and  _130
REMARK   50  A    between atoms: _132  and  _134
REMARK   51  A    between atoms: _134  and  _135
REMARK   52  A    between atoms: _138  and  _140
REMARK   53  A    between atoms: _140  and  _141
REMARK   54  A    between atoms: _140  and  _143
REMARK   55  A    between atoms: _143  and  _144
REMARK   56  A    between atoms: _144  and  _145
REMARK   57  A    between atoms: _145  and  _146
REMARK   58  A    between atoms: _146  and  _147
REMARK   59  A    between atoms: _151  and  _153
REMARK   60  A    between atoms: _153  and  _154
REMARK   61  A    between atoms: _153  and  _156
REMARK   62  A    between atoms: _156  and  _157
REMARK   63  A    between atoms: _157  and  _158
REMARK   64  A    between atoms: _160  and  _162
REMARK   65  A    between atoms: _162  and  _163
REMARK   66  A    between atoms: _162  and  _165
REMARK   67  A    between atoms: _165  and  _166
REMARK   68  A    between atoms: _171  and  _172
REMARK   69  A    between atoms: _174  and  _176
REMARK   70  A    between atoms: _176  and  _177
REMARK   71  A    between atoms: _176  and  _179
REMARK   72  A    between atoms: _179  and  _180
REMARK   73  A    between atoms: _183  and  _185
REMARK   74  A    between atoms: _185  and  _186
REMARK   75  A    between atoms: _185  and  _188
REMARK   76  A    between atoms: _188  and  _189
REMARK   77  A    between atoms: _195  and  _197
REMARK   78  A    between atoms: _197  and  _198
REMARK   79  A    between atoms: _197  and  _200
REMARK   80  A    between atoms: _200  and  _201
REMARK   81  A    between atoms: _206  and  _207
REMARK   82  A    between atoms: _209  and  _211
REMARK   83  A    between atoms: _211  and  _212
REMARK   84  A    between atoms: _214  and  _216
REMARK   85  A    between atoms: _216  and  _217
REMARK   86  A    between atoms: _219  and  _221
REMARK   87  A    between atoms: _221  and  _222
REMARK   88  A    between atoms: _221  and  _224
REMARK   89  A    between atoms: _224  and  _225
REMARK   90  A    between atoms: _235  and  _237
REMARK   91  A    between atoms: _237  and  _238
REMARK   92  A    between atoms: _237  and  _240
REMARK   93  A    between atoms: _240  and  _241
REMARK   94  A    between atoms: _246  and  _248
REMARK   95  A    between atoms: _248  and  _249
REMARK   96  A    between atoms: _248  and  _251
REMARK   97  A    between atoms: _251  and  _252
REMARK   98  A    between atoms: _257  and  _258
REMARK   99  A    between atoms: _260  and  _262
REMARK  100  A    between atoms: _262  and  _263
REMARK  101  A    between atoms: _262  and  _265
REMARK  102  A    between atoms: _265  and  _266
REMARK  103  A    between atoms: _271  and  _272
REMARK  104  A    between atoms: _274  and  _276
REMARK  105  A    between atoms: _276  and  _277
REMARK  106  A    between atoms: _276  and  _279
REMARK  107  A    between atoms: _279  and  _280
REMARK  108  A    between atoms: _280  and  _281
REMARK  109  A    between atoms: _281  and  _282
REMARK  110  A    between atoms: _291  and  _293
REMARK  111  A    between atoms: _293  and  _294
REMARK  112  A    between atoms: _293  and  _296
REMARK  113  A    between atoms: _296  and  _297
REMARK  114  A    between atoms: _297  and  _298
REMARK  115  A    between atoms: _298  and  _299
REMARK  116  A    between atoms: _299  and  _300
REMARK  117  A    between atoms: _304  and  _306
REMARK  118  A    between atoms: _306  and  _307
REMARK  119  A    between atoms: _306  and  _309
REMARK  120  A    between atoms: _309  and  _310
REMARK  121  A    between atoms: _310  and  _311
REMARK  122  A    between atoms: _314  and  _316
REMARK  123  A    between atoms: _316  and  _317
REMARK  124  A    between atoms: _316  and  _319
REMARK  125  A    between atoms: _322  and  _324
REMARK  126  A    between atoms: _324  and  _325
REMARK  127  A    between atoms: _324  and  _327
REMARK  128  A    between atoms: _327  and  _328
REMARK  129  A    between atoms: _338  and  _340
REMARK  130  A    between atoms: _340  and  _341
REMARK  131  A    between atoms: _340  and  _343
REMARK  132  A    between atoms: _343  and  _344
REMARK  133  A    between atoms: _344  and  _345
REMARK                            x       y       z     vdW  Elec       q    Type
REMARK                         _______ _______ _______ _____ _____    ______ ____
ROOT
ATOM      1  O   HOH     1      13.235 -11.036  19.109  0.00  0.00    +0.000 OA
ENDROOT
TORSDOF 0
REMARK  Name = ../refined-set-2016/3arv/3arv_pocket.pdb
REMARK  133 active torsions:
REMARK  status: ('A' for Active; 'I' for Inactive)
REMARK    1  A    between atoms: _1  and  _3
REMARK    2  A    between atoms: _3  and  _4
REMARK    3  A    between atoms: _3  and  _6
REMARK    4  A    between atoms: _6  and  _7
REMARK    5  A    between atoms: _17  and  _19
REMARK    6  A    between atoms: _19  and  _20
REMARK    7  A    between atoms: _19  and  _22
REMARK    8  A    between atoms: _22  and  _23
REMARK    9  A    between atoms: _29  and  _31
REMARK   10  A    between atoms: _31  and  _32
REMARK   11  A    between atoms: _31  and  _34
REMARK   12  A    between atoms: _34  and  _35
REMARK   13  A    between atoms: _37  and  _39
REMARK   14  A    between atoms: _39  and  _40
REMARK   15  A    between atoms: _39  and  _42
REMARK   16  A    between atoms: _45  and  _47
REMARK   17  A    between atoms: _47  and  _48
REMARK   18  A    between atoms: _47  and  _50
REMARK   19  A    between atoms: _50  and  _51
REMARK   20  A    between atoms: _53  and  _55
REMARK   21  A    between atoms: _55  and  _56
REMARK   22  A    between atoms: _55  and  _58
REMARK   23  A    between atoms: _61  and  _63
REMARK   24  A    between atoms: _63  and  _64
REMARK   25  A    between atoms: _66  and  _68
REMARK   26  A    between atoms: _68  and  _69
REMARK   27  A    between atoms: _68  and  _71
REMARK   28  A    between atoms: _71  and  _72
REMARK   29  A    between atoms: _82  and  _84
REMARK   30  A    between atoms: _84  and  _85
REMARK   31  A    between atoms: _84  and  _87
REMARK   32  A    between atoms: _87  and  _88
REMARK   33  A    between atoms: _91  and  _93
REMARK   34  A    between atoms: _93  and  _94
REMARK   35  A    between atoms: _93  and  _96
REMARK   36  A    between atoms: _96  and  _97
REMARK   37  A    between atoms: _100  and  _102
REMARK   38  A    between atoms: _102  and  _103
REMARK   39  A    between atoms: _102  and  _105
REMARK   40  A    between atoms: _105  and  _106
REMARK   41  A    between atoms: _106  and  _107
REMARK   42  A    between atoms: _110  and  _112
REMARK   43  A    between atoms: _112  and  _113
REMARK   44  A    between atoms: _112  and  _115
REMARK   45  A    between atoms: _115  and  _116
REMARK   46  A    between atoms: _122  and  _124
REMARK   47  A    between atoms: _124  and  _125
REMARK   48  A    between atoms: _127  and  _129
REMARK   49  A    between atoms: _129  and  _130
REMARK   50  A    between atoms: _132  and  _134
REMARK   51  A    between atoms: _134  and  _135
REMARK   52  A    between atoms: _138  and  _140
REMARK   53  A    between atoms: _140  and  _141
REMARK   54  A    between atoms: _140  and  _143
REMARK   55  A    between atoms: _143  and  _144
REMARK   56  A    between atoms: _144  and  _145
REMARK   57  A    between atoms: _145  and  _146
REMARK   58  A    between atoms: _146  and  _147
REMARK   59  A    between atoms: _151  and  _153
REMARK   60  A    between atoms: _153  and  _154
REMARK   61  A    between atoms: _153  and  _156
REMARK   62  A    between atoms: _156  and  _157
REMARK   63  A    between atoms: _157  and  _158
REMARK   64  A    between atoms: _160  and  _162
REMARK   65  A    between atoms: _162  and  _163
REMARK   66  A    between atoms: _162  and  _165
REMARK   67  A    between atoms: _165  and  _166
REMARK   68  A    between atoms: _171  and  _172
REMARK   69  A    between atoms: _174  and  _176
REMARK   70  A    between atoms: _176  and  _177
REMARK   71  A    between atoms: _176  and  _179
REMARK   72  A    between atoms: _179  and  _180
REMARK   73  A    between atoms: _183  and  _185
REMARK   74  A    between atoms: _185  and  _186
REMARK   75  A    between atoms: _185  and  _188
REMARK   76  A    between atoms: _188  and  _189
REMARK   77  A    between atoms: _195  and  _197
REMARK   78  A    between atoms: _197  and  _198
REMARK   79  A    between atoms: _197  and  _200
REMARK   80  A    between atoms: _200  and  _201
REMARK   81  A    between atoms: _206  and  _207
REMARK   82  A    between atoms: _209  and  _211
REMARK   83  A    between atoms: _211  and  _212
REMARK   84  A    between atoms: _214  and  _216
REMARK   85  A    between atoms: _216  and  _217
REMARK   86  A    between atoms: _219  and  _221
REMARK   87  A    between atoms: _221  and  _222
REMARK   88  A    between atoms: _221  and  _224
REMARK   89  A    between atoms: _224  and  _225
REMARK   90  A    between atoms: _235  and  _237
REMARK   91  A    between atoms: _237  and  _238
REMARK   92  A    between atoms: _237  and  _240
REMARK   93  A    between atoms: _240  and  _241
REMARK   94  A    between atoms: _246  and  _248
REMARK   95  A    between atoms: _248  and  _249
REMARK   96  A    between atoms: _248  and  _251
REMARK   97  A    between atoms: _251  and  _252
REMARK   98  A    between atoms: _257  and  _258
REMARK   99  A    between atoms: _260  and  _262
REMARK  100  A    between atoms: _262  and  _263
REMARK  101  A    between atoms: _262  and  _265
REMARK  102  A    between atoms: _265  and  _266
REMARK  103  A    between atoms: _271  and  _272
REMARK  104  A    between atoms: _274  and  _276
REMARK  105  A    between atoms: _276  and  _277
REMARK  106  A    between atoms: _276  and  _279
REMARK  107  A    between atoms: _279  and  _280
REMARK  108  A    between atoms: _280  and  _281
REMARK  109  A    between atoms: _281  and  _282
REMARK  110  A    between atoms: _291  and  _293
REMARK  111  A    between atoms: _293  and  _294
REMARK  112  A    between atoms: _293  and  _296
REMARK  113  A    between atoms: _296  and  _297
REMARK  114  A    between atoms: _297  and  _298
REMARK  115  A    between atoms: _298  and  _299
REMARK  116  A    between atoms: _299  and  _300
REMARK  117  A    between atoms: _304  and  _306
REMARK  118  A    between atoms: _306  and  _307
REMARK  119  A    between atoms: _306  and  _309
REMARK  120  A    between atoms: _309  and  _310
REMARK  121  A    between atoms: _310  and  _311
REMARK  122  A    between atoms: _314  and  _316
REMARK  123  A    between atoms: _316  and  _317
REMARK  124  A    between atoms: _316  and  _319
REMARK  125  A    between atoms: _322  and  _324
REMARK  126  A    between atoms: _324  and  _325
REMARK  127  A    between atoms: _324  and  _327
REMARK  128  A    between atoms: _327  and  _328
REMARK  129  A    between atoms: _338  and  _340
REMARK  130  A    between atoms: _340  and  _341
REMARK  131  A    between atoms: _340  and  _343
REMARK  132  A    between atoms: _343  and  _344
REMARK  133  A    between atoms: _344  and  _345
REMARK                            x       y       z     vdW  Elec       q    Type
REMARK                         _______ _______ _______ _____ _____    ______ ____
ROOT
ATOM      1  O   HOH     1       7.976  -9.991  20.037  0.00  0.00    +0.000 OA
ENDROOT
TORSDOF 0
REMARK  Name = ../refined-set-2016/3arv/3arv_pocket.pdb
REMARK  133 active torsions:
REMARK  status: ('A' for Active; 'I' for Inactive)
REMARK    1  A    between atoms: _1  and  _3
REMARK    2  A    between atoms: _3  and  _4
REMARK    3  A    between atoms: _3  and  _6
REMARK    4  A    between atoms: _6  and  _7
REMARK    5  A    between atoms: _17  and  _19
REMARK    6  A    between atoms: _19  and  _20
REMARK    7  A    between atoms: _19  and  _22
REMARK    8  A    between atoms: _22  and  _23
REMARK    9  A    between atoms: _29  and  _31
REMARK   10  A    between atoms: _31  and  _32
REMARK   11  A    between atoms: _31  and  _34
REMARK   12  A    between atoms: _34  and  _35
REMARK   13  A    between atoms: _37  and  _39
REMARK   14  A    between atoms: _39  and  _40
REMARK   15  A    between atoms: _39  and  _42
REMARK   16  A    between atoms: _45  and  _47
REMARK   17  A    between atoms: _47  and  _48
REMARK   18  A    between atoms: _47  and  _50
REMARK   19  A    between atoms: _50  and  _51
REMARK   20  A    between atoms: _53  and  _55
REMARK   21  A    between atoms: _55  and  _56
REMARK   22  A    between atoms: _55  and  _58
REMARK   23  A    between atoms: _61  and  _63
REMARK   24  A    between atoms: _63  and  _64
REMARK   25  A    between atoms: _66  and  _68
REMARK   26  A    between atoms: _68  and  _69
REMARK   27  A    between atoms: _68  and  _71
REMARK   28  A    between atoms: _71  and  _72
REMARK   29  A    between atoms: _82  and  _84
REMARK   30  A    between atoms: _84  and  _85
REMARK   31  A    between atoms: _84  and  _87
REMARK   32  A    between atoms: _87  and  _88
REMARK   33  A    between atoms: _91  and  _93
REMARK   34  A    between atoms: _93  and  _94
REMARK   35  A    between atoms: _93  and  _96
REMARK   36  A    between atoms: _96  and  _97
REMARK   37  A    between atoms: _100  and  _102
REMARK   38  A    between atoms: _102  and  _103
REMARK   39  A    between atoms: _102  and  _105
REMARK   40  A    between atoms: _105  and  _106
REMARK   41  A    between atoms: _106  and  _107
REMARK   42  A    between atoms: _110  and  _112
REMARK   43  A    between atoms: _112  and  _113
REMARK   44  A    between atoms: _112  and  _115
REMARK   45  A    between atoms: _115  and  _116
REMARK   46  A    between atoms: _122  and  _124
REMARK   47  A    between atoms: _124  and  _125
REMARK   48  A    between atoms: _127  and  _129
REMARK   49  A    between atoms: _129  and  _130
REMARK   50  A    between atoms: _132  and  _134
REMARK   51  A    between atoms: _134  and  _135
REMARK   52  A    between atoms: _138  and  _140
REMARK   53  A    between atoms: _140  and  _141
REMARK   54  A    between atoms: _140  and  _143
REMARK   55  A    between atoms: _143  and  _144
REMARK   56  A    between atoms: _144  and  _145
REMARK   57  A    between atoms: _145  and  _146
REMARK   58  A    between atoms: _146  and  _147
REMARK   59  A    between atoms: _151  and  _153
REMARK   60  A    between atoms: _153  and  _154
REMARK   61  A    between atoms: _153  and  _156
REMARK   62  A    between atoms: _156  and  _157
REMARK   63  A    between atoms: _157  and  _158
REMARK   64  A    between atoms: _160  and  _162
REMARK   65  A    between atoms: _162  and  _163
REMARK   66  A    between atoms: _162  and  _165
REMARK   67  A    between atoms: _165  and  _166
REMARK   68  A    between atoms: _171  and  _172
REMARK   69  A    between atoms: _174  and  _176
REMARK   70  A    between atoms: _176  and  _177
REMARK   71  A    between atoms: _176  and  _179
REMARK   72  A    between atoms: _179  and  _180
REMARK   73  A    between atoms: _183  and  _185
REMARK   74  A    between atoms: _185  and  _186
REMARK   75  A    between atoms: _185  and  _188
REMARK   76  A    between atoms: _188  and  _189
REMARK   77  A    between atoms: _195  and  _197
REMARK   78  A    between atoms: _197  and  _198
REMARK   79  A    between atoms: _197  and  _200
REMARK   80  A    between atoms: _200  and  _201
REMARK   81  A    between atoms: _206  and  _207
REMARK   82  A    between atoms: _209  and  _211
REMARK   83  A    between atoms: _211  and  _212
REMARK   84  A    between atoms: _214  and  _216
REMARK   85  A    between atoms: _216  and  _217
REMARK   86  A    between atoms: _219  and  _221
REMARK   87  A    between atoms: _221  and  _222
REMARK   88  A    between atoms: _221  and  _224
REMARK   89  A    between atoms: _224  and  _225
REMARK   90  A    between atoms: _235  and  _237
REMARK   91  A    between atoms: _237  and  _238
REMARK   92  A    between atoms: _237  and  _240
REMARK   93  A    between atoms: _240  and  _241
REMARK   94  A    between atoms: _246  and  _248
REMARK   95  A    between atoms: _248  and  _249
REMARK   96  A    between atoms: _248  and  _251
REMARK   97  A    between atoms: _251  and  _252
REMARK   98  A    between atoms: _257  and  _258
REMARK   99  A    between atoms: _260  and  _262
REMARK  100  A    between atoms: _262  and  _263
REMARK  101  A    between atoms: _262  and  _265
REMARK  102  A    between atoms: _265  and  _266
REMARK  103  A    between atoms: _271  and  _272
REMARK  104  A    between atoms: _274  and  _276
REMARK  105  A    between atoms: _276  and  _277
REMARK  106  A    between atoms: _276  and  _279
REMARK  107  A    between atoms: _279  and  _280
REMARK  108  A    between atoms: _280  and  _281
REMARK  109  A    between atoms: _281  and  _282
REMARK  110  A    between atoms: _291  and  _293
REMARK  111  A    between atoms: _293  and  _294
REMARK  112  A    between atoms: _293  and  _296
REMARK  113  A    between atoms: _296  and  _297
REMARK  114  A    between atoms: _297  and  _298
REMARK  115  A    between atoms: _298  and  _299
REMARK  116  A    between atoms: _299  and  _300
REMARK  117  A    between atoms: _304  and  _306
REMARK  118  A    between atoms: _306  and  _307
REMARK  119  A    between atoms: _306  and  _309
REMARK  120  A    between atoms: _309  and  _310
REMARK  121  A    between atoms: _310  and  _311
REMARK  122  A    between atoms: _314  and  _316
REMARK  123  A    between atoms: _316  and  _317
REMARK  124  A    between atoms: _316  and  _319
REMARK  125  A    between atoms: _322  and  _324
REMARK  126  A    between atoms: _324  and  _325
REMARK  127  A    between atoms: _324  and  _327
REMARK  128  A    between atoms: _327  and  _328
REMARK  129  A    between atoms: _338  and  _340
REMARK  130  A    between atoms: _340  and  _341
REMARK  131  A    between atoms: _340  and  _343
REMARK  132  A    between atoms: _343  and  _344
REMARK  133  A    between atoms: _344  and  _345
REMARK                            x       y       z     vdW  Elec       q    Type
REMARK                         _______ _______ _______ _____ _____    ______ ____
ROOT
ATOM      1  O   HOH     1      26.705 -10.389  19.200  0.00  0.00    +0.000 OA
ENDROOT
TORSDOF 0
REMARK  Name = ../refined-set-2016/3arv/3arv_pocket.pdb
REMARK  133 active torsions:
REMARK  status: ('A' for Active; 'I' for Inactive)
REMARK    1  A    between atoms: _1  and  _3
REMARK    2  A    between atoms: _3  and  _4
REMARK    3  A    between atoms: _3  and  _6
REMARK    4  A    between atoms: _6  and  _7
REMARK    5  A    between atoms: _17  and  _19
REMARK    6  A    between atoms: _19  and  _20
REMARK    7  A    between atoms: _19  and  _22
REMARK    8  A    between atoms: _22  and  _23
REMARK    9  A    between atoms: _29  and  _31
REMARK   10  A    between atoms: _31  and  _32
REMARK   11  A    between atoms: _31  and  _34
REMARK   12  A    between atoms: _34  and  _35
REMARK   13  A    between atoms: _37  and  _39
REMARK   14  A    between atoms: _39  and  _40
REMARK   15  A    between atoms: _39  and  _42
REMARK   16  A    between atoms: _45  and  _47
REMARK   17  A    between atoms: _47  and  _48
REMARK   18  A    between atoms: _47  and  _50
REMARK   19  A    between atoms: _50  and  _51
REMARK   20  A    between atoms: _53  and  _55
REMARK   21  A    between atoms: _55  and  _56
REMARK   22  A    between atoms: _55  and  _58
REMARK   23  A    between atoms: _61  and  _63
REMARK   24  A    between atoms: _63  and  _64
REMARK   25  A    between atoms: _66  and  _68
REMARK   26  A    between atoms: _68  and  _69
REMARK   27  A    between atoms: _68  and  _71
REMARK   28  A    between atoms: _71  and  _72
REMARK   29  A    between atoms: _82  and  _84
REMARK   30  A    between atoms: _84  and  _85
REMARK   31  A    between atoms: _84  and  _87
REMARK   32  A    between atoms: _87  and  _88
REMARK   33  A    between atoms: _91  and  _93
REMARK   34  A    between atoms: _93  and  _94
REMARK   35  A    between atoms: _93  and  _96
REMARK   36  A    between atoms: _96  and  _97
REMARK   37  A    between atoms: _100  and  _102
REMARK   38  A    between atoms: _102  and  _103
REMARK   39  A    between atoms: _102  and  _105
REMARK   40  A    between atoms: _105  and  _106
REMARK   41  A    between atoms: _106  and  _107
REMARK   42  A    between atoms: _110  and  _112
REMARK   43  A    between atoms: _112  and  _113
REMARK   44  A    between atoms: _112  and  _115
REMARK   45  A    between atoms: _115  and  _116
REMARK   46  A    between atoms: _122  and  _124
REMARK   47  A    between atoms: _124  and  _125
REMARK   48  A    between atoms: _127  and  _129
REMARK   49  A    between atoms: _129  and  _130
REMARK   50  A    between atoms: _132  and  _134
REMARK   51  A    between atoms: _134  and  _135
REMARK   52  A    between atoms: _138  and  _140
REMARK   53  A    between atoms: _140  and  _141
REMARK   54  A    between atoms: _140  and  _143
REMARK   55  A    between atoms: _143  and  _144
REMARK   56  A    between atoms: _144  and  _145
REMARK   57  A    between atoms: _145  and  _146
REMARK   58  A    between atoms: _146  and  _147
REMARK   59  A    between atoms: _151  and  _153
REMARK   60  A    between atoms: _153  and  _154
REMARK   61  A    between atoms: _153  and  _156
REMARK   62  A    between atoms: _156  and  _157
REMARK   63  A    between atoms: _157  and  _158
REMARK   64  A    between atoms: _160  and  _162
REMARK   65  A    between atoms: _162  and  _163
REMARK   66  A    between atoms: _162  and  _165
REMARK   67  A    between atoms: _165  and  _166
REMARK   68  A    between atoms: _171  and  _172
REMARK   69  A    between atoms: _174  and  _176
REMARK   70  A    between atoms: _176  and  _177
REMARK   71  A    between atoms: _176  and  _179
REMARK   72  A    between atoms: _179  and  _180
REMARK   73  A    between atoms: _183  and  _185
REMARK   74  A    between atoms: _185  and  _186
REMARK   75  A    between atoms: _185  and  _188
REMARK   76  A    between atoms: _188  and  _189
REMARK   77  A    between atoms: _195  and  _197
REMARK   78  A    between atoms: _197  and  _198
REMARK   79  A    between atoms: _197  and  _200
REMARK   80  A    between atoms: _200  and  _201
REMARK   81  A    between atoms: _206  and  _207
REMARK   82  A    between atoms: _209  and  _211
REMARK   83  A    between atoms: _211  and  _212
REMARK   84  A    between atoms: _214  and  _216
REMARK   85  A    between atoms: _216  and  _217
REMARK   86  A    between atoms: _219  and  _221
REMARK   87  A    between atoms: _221  and  _222
REMARK   88  A    between atoms: _221  and  _224
REMARK   89  A    between atoms: _224  and  _225
REMARK   90  A    between atoms: _235  and  _237
REMARK   91  A    between atoms: _237  and  _238
REMARK   92  A    between atoms: _237  and  _240
REMARK   93  A    between atoms: _240  and  _241
REMARK   94  A    between atoms: _246  and  _248
REMARK   95  A    between atoms: _248  and  _249
REMARK   96  A    between atoms: _248  and  _251
REMARK   97  A    between atoms: _251  and  _252
REMARK   98  A    between atoms: _257  and  _258
REMARK   99  A    between atoms: _260  and  _262
REMARK  100  A    between atoms: _262  and  _263
REMARK  101  A    between atoms: _262  and  _265
REMARK  102  A    between atoms: _265  and  _266
REMARK  103  A    between atoms: _271  and  _272
REMARK  104  A    between atoms: _274  and  _276
REMARK  105  A    between atoms: _276  and  _277
REMARK  106  A    between atoms: _276  and  _279
REMARK  107  A    between atoms: _279  and  _280
REMARK  108  A    between atoms: _280  and  _281
REMARK  109  A    between atoms: _281  and  _282
REMARK  110  A    between atoms: _291  and  _293
REMARK  111  A    between atoms: _293  and  _294
REMARK  112  A    between atoms: _293  and  _296
REMARK  113  A    between atoms: _296  and  _297
REMARK  114  A    between atoms: _297  and  _298
REMARK  115  A    between atoms: _298  and  _299
REMARK  116  A    between atoms: _299  and  _300
REMARK  117  A    between atoms: _304  and  _306
REMARK  118  A    between atoms: _306  and  _307
REMARK  119  A    between atoms: _306  and  _309
REMARK  120  A    between atoms: _309  and  _310
REMARK  121  A    between atoms: _310  and  _311
REMARK  122  A    between atoms: _314  and  _316
REMARK  123  A    between atoms: _316  and  _317
REMARK  124  A    between atoms: _316  and  _319
REMARK  125  A    between atoms: _322  and  _324
REMARK  126  A    between atoms: _324  and  _325
REMARK  127  A    between atoms: _324  and  _327
REMARK  128  A    between atoms: _327  and  _328
REMARK  129  A    between atoms: _338  and  _340
REMARK  130  A    between atoms: _340  and  _341
REMARK  131  A    between atoms: _340  and  _343
REMARK  132  A    between atoms: _343  and  _344
REMARK  133  A    between atoms: _344  and  _345
REMARK                            x       y       z     vdW  Elec       q    Type
REMARK                         _______ _______ _______ _____ _____    ______ ____
ROOT
ATOM      1  O   HOH     1       9.734  -1.170  22.062  0.00  0.00    +0.000 OA
ENDROOT
TORSDOF 0
REMARK  Name = ../refined-set-2016/3arv/3arv_pocket.pdb
REMARK  133 active torsions:
REMARK  status: ('A' for Active; 'I' for Inactive)
REMARK    1  A    between atoms: _1  and  _3
REMARK    2  A    between atoms: _3  and  _4
REMARK    3  A    between atoms: _3  and  _6
REMARK    4  A    between atoms: _6  and  _7
REMARK    5  A    between atoms: _17  and  _19
REMARK    6  A    between atoms: _19  and  _20
REMARK    7  A    between atoms: _19  and  _22
REMARK    8  A    between atoms: _22  and  _23
REMARK    9  A    between atoms: _29  and  _31
REMARK   10  A    between atoms: _31  and  _32
REMARK   11  A    between atoms: _31  and  _34
REMARK   12  A    between atoms: _34  and  _35
REMARK   13  A    between atoms: _37  and  _39
REMARK   14  A    between atoms: _39  and  _40
REMARK   15  A    between atoms: _39  and  _42
REMARK   16  A    between atoms: _45  and  _47
REMARK   17  A    between atoms: _47  and  _48
REMARK   18  A    between atoms: _47  and  _50
REMARK   19  A    between atoms: _50  and  _51
REMARK   20  A    between atoms: _53  and  _55
REMARK   21  A    between atoms: _55  and  _56
REMARK   22  A    between atoms: _55  and  _58
REMARK   23  A    between atoms: _61  and  _63
REMARK   24  A    between atoms: _63  and  _64
REMARK   25  A    between atoms: _66  and  _68
REMARK   26  A    between atoms: _68  and  _69
REMARK   27  A    between atoms: _68  and  _71
REMARK   28  A    between atoms: _71  and  _72
REMARK   29  A    between atoms: _82  and  _84
REMARK   30  A    between atoms: _84  and  _85
REMARK   31  A    between atoms: _84  and  _87
REMARK   32  A    between atoms: _87  and  _88
REMARK   33  A    between atoms: _91  and  _93
REMARK   34  A    between atoms: _93  and  _94
REMARK   35  A    between atoms: _93  and  _96
REMARK   36  A    between atoms: _96  and  _97
REMARK   37  A    between atoms: _100  and  _102
REMARK   38  A    between atoms: _102  and  _103
REMARK   39  A    between atoms: _102  and  _105
REMARK   40  A    between atoms: _105  and  _106
REMARK   41  A    between atoms: _106  and  _107
REMARK   42  A    between atoms: _110  and  _112
REMARK   43  A    between atoms: _112  and  _113
REMARK   44  A    between atoms: _112  and  _115
REMARK   45  A    between atoms: _115  and  _116
REMARK   46  A    between atoms: _122  and  _124
REMARK   47  A    between atoms: _124  and  _125
REMARK   48  A    between atoms: _127  and  _129
REMARK   49  A    between atoms: _129  and  _130
REMARK   50  A    between atoms: _132  and  _134
REMARK   51  A    between atoms: _134  and  _135
REMARK   52  A    between atoms: _138  and  _140
REMARK   53  A    between atoms: _140  and  _141
REMARK   54  A    between atoms: _140  and  _143
REMARK   55  A    between atoms: _143  and  _144
REMARK   56  A    between atoms: _144  and  _145
REMARK   57  A    between atoms: _145  and  _146
REMARK   58  A    between atoms: _146  and  _147
REMARK   59  A    between atoms: _151  and  _153
REMARK   60  A    between atoms: _153  and  _154
REMARK   61  A    between atoms: _153  and  _156
REMARK   62  A    between atoms: _156  and  _157
REMARK   63  A    between atoms: _157  and  _158
REMARK   64  A    between atoms: _160  and  _162
REMARK   65  A    between atoms: _162  and  _163
REMARK   66  A    between atoms: _162  and  _165
REMARK   67  A    between atoms: _165  and  _166
REMARK   68  A    between atoms: _171  and  _172
REMARK   69  A    between atoms: _174  and  _176
REMARK   70  A    between atoms: _176  and  _177
REMARK   71  A    between atoms: _176  and  _179
REMARK   72  A    between atoms: _179  and  _180
REMARK   73  A    between atoms: _183  and  _185
REMARK   74  A    between atoms: _185  and  _186
REMARK   75  A    between atoms: _185  and  _188
REMARK   76  A    between atoms: _188  and  _189
REMARK   77  A    between atoms: _195  and  _197
REMARK   78  A    between atoms: _197  and  _198
REMARK   79  A    between atoms: _197  and  _200
REMARK   80  A    between atoms: _200  and  _201
REMARK   81  A    between atoms: _206  and  _207
REMARK   82  A    between atoms: _209  and  _211
REMARK   83  A    between atoms: _211  and  _212
REMARK   84  A    between atoms: _214  and  _216
REMARK   85  A    between atoms: _216  and  _217
REMARK   86  A    between atoms: _219  and  _221
REMARK   87  A    between atoms: _221  and  _222
REMARK   88  A    between atoms: _221  and  _224
REMARK   89  A    between atoms: _224  and  _225
REMARK   90  A    between atoms: _235  and  _237
REMARK   91  A    between atoms: _237  and  _238
REMARK   92  A    between atoms: _237  and  _240
REMARK   93  A    between atoms: _240  and  _241
REMARK   94  A    between atoms: _246  and  _248
REMARK   95  A    between atoms: _248  and  _249
REMARK   96  A    between atoms: _248  and  _251
REMARK   97  A    between atoms: _251  and  _252
REMARK   98  A    between atoms: _257  and  _258
REMARK   99  A    between atoms: _260  and  _262
REMARK  100  A    between atoms: _262  and  _263
REMARK  101  A    between atoms: _262  and  _265
REMARK  102  A    between atoms: _265  and  _266
REMARK  103  A    between atoms: _271  and  _272
REMARK  104  A    between atoms: _274  and  _276
REMARK  105  A    between atoms: _276  and  _277
REMARK  106  A    between atoms: _276  and  _279
REMARK  107  A    between atoms: _279  and  _280
REMARK  108  A    between atoms: _280  and  _281
REMARK  109  A    between atoms: _281  and  _282
REMARK  110  A    between atoms: _291  and  _293
REMARK  111  A    between atoms: _293  and  _294
REMARK  112  A    between atoms: _293  and  _296
REMARK  113  A    between atoms: _296  and  _297
REMARK  114  A    between atoms: _297  and  _298
REMARK  115  A    between atoms: _298  and  _299
REMARK  116  A    between atoms: _299  and  _300
REMARK  117  A    between atoms: _304  and  _306
REMARK  118  A    between atoms: _306  and  _307
REMARK  119  A    between atoms: _306  and  _309
REMARK  120  A    between atoms: _309  and  _310
REMARK  121  A    between atoms: _310  and  _311
REMARK  122  A    between atoms: _314  and  _316
REMARK  123  A    between atoms: _316  and  _317
REMARK  124  A    between atoms: _316  and  _319
REMARK  125  A    between atoms: _322  and  _324
REMARK  126  A    between atoms: _324  and  _325
REMARK  127  A    between atoms: _324  and  _327
REMARK  128  A    between atoms: _327  and  _328
REMARK  129  A    between atoms: _338  and  _340
REMARK  130  A    between atoms: _340  and  _341
REMARK  131  A    between atoms: _340  and  _343
REMARK  132  A    between atoms: _343  and  _344
REMARK  133  A    between atoms: _344  and  _345
REMARK                            x       y       z     vdW  Elec       q    Type
REMARK                         _______ _______ _______ _____ _____    ______ ____
ROOT
ATOM      1  O   HOH     1      25.746  -6.423  24.482  0.00  0.00    +0.000 OA
ENDROOT
TORSDOF 0
REMARK  Name = ../refined-set-2016/3arv/3arv_pocket.pdb
REMARK  133 active torsions:
REMARK  status: ('A' for Active; 'I' for Inactive)
REMARK    1  A    between atoms: _1  and  _3
REMARK    2  A    between atoms: _3  and  _4
REMARK    3  A    between atoms: _3  and  _6
REMARK    4  A    between atoms: _6  and  _7
REMARK    5  A    between atoms: _17  and  _19
REMARK    6  A    between atoms: _19  and  _20
REMARK    7  A    between atoms: _19  and  _22
REMARK    8  A    between atoms: _22  and  _23
REMARK    9  A    between atoms: _29  and  _31
REMARK   10  A    between atoms: _31  and  _32
REMARK   11  A    between atoms: _31  and  _34
REMARK   12  A    between atoms: _34  and  _35
REMARK   13  A    between atoms: _37  and  _39
REMARK   14  A    between atoms: _39  and  _40
REMARK   15  A    between atoms: _39  and  _42
REMARK   16  A    between atoms: _45  and  _47
REMARK   17  A    between atoms: _47  and  _48
REMARK   18  A    between atoms: _47  and  _50
REMARK   19  A    between atoms: _50  and  _51
REMARK   20  A    between atoms: _53  and  _55
REMARK   21  A    between atoms: _55  and  _56
REMARK   22  A    between atoms: _55  and  _58
REMARK   23  A    between atoms: _61  and  _63
REMARK   24  A    between atoms: _63  and  _64
REMARK   25  A    between atoms: _66  and  _68
REMARK   26  A    between atoms: _68  and  _69
REMARK   27  A    between atoms: _68  and  _71
REMARK   28  A    between atoms: _71  and  _72
REMARK   29  A    between atoms: _82  and  _84
REMARK   30  A    between atoms: _84  and  _85
REMARK   31  A    between atoms: _84  and  _87
REMARK   32  A    between atoms: _87  and  _88
REMARK   33  A    between atoms: _91  and  _93
REMARK   34  A    between atoms: _93  and  _94
REMARK   35  A    between atoms: _93  and  _96
REMARK   36  A    between atoms: _96  and  _97
REMARK   37  A    between atoms: _100  and  _102
REMARK   38  A    between atoms: _102  and  _103
REMARK   39  A    between atoms: _102  and  _105
REMARK   40  A    between atoms: _105  and  _106
REMARK   41  A    between atoms: _106  and  _107
REMARK   42  A    between atoms: _110  and  _112
REMARK   43  A    between atoms: _112  and  _113
REMARK   44  A    between atoms: _112  and  _115
REMARK   45  A    between atoms: _115  and  _116
REMARK   46  A    between atoms: _122  and  _124
REMARK   47  A    between atoms: _124  and  _125
REMARK   48  A    between atoms: _127  and  _129
REMARK   49  A    between atoms: _129  and  _130
REMARK   50  A    between atoms: _132  and  _134
REMARK   51  A    between atoms: _134  and  _135
REMARK   52  A    between atoms: _138  and  _140
REMARK   53  A    between atoms: _140  and  _141
REMARK   54  A    between atoms: _140  and  _143
REMARK   55  A    between atoms: _143  and  _144
REMARK   56  A    between atoms: _144  and  _145
REMARK   57  A    between atoms: _145  and  _146
REMARK   58  A    between atoms: _146  and  _147
REMARK   59  A    between atoms: _151  and  _153
REMARK   60  A    between atoms: _153  and  _154
REMARK   61  A    between atoms: _153  and  _156
REMARK   62  A    between atoms: _156  and  _157
REMARK   63  A    between atoms: _157  and  _158
REMARK   64  A    between atoms: _160  and  _162
REMARK   65  A    between atoms: _162  and  _163
REMARK   66  A    between atoms: _162  and  _165
REMARK   67  A    between atoms: _165  and  _166
REMARK   68  A    between atoms: _171  and  _172
REMARK   69  A    between atoms: _174  and  _176
REMARK   70  A    between atoms: _176  and  _177
REMARK   71  A    between atoms: _176  and  _179
REMARK   72  A    between atoms: _179  and  _180
REMARK   73  A    between atoms: _183  and  _185
REMARK   74  A    between atoms: _185  and  _186
REMARK   75  A    between atoms: _185  and  _188
REMARK   76  A    between atoms: _188  and  _189
REMARK   77  A    between atoms: _195  and  _197
REMARK   78  A    between atoms: _197  and  _198
REMARK   79  A    between atoms: _197  and  _200
REMARK   80  A    between atoms: _200  and  _201
REMARK   81  A    between atoms: _206  and  _207
REMARK   82  A    between atoms: _209  and  _211
REMARK   83  A    between atoms: _211  and  _212
REMARK   84  A    between atoms: _214  and  _216
REMARK   85  A    between atoms: _216  and  _217
REMARK   86  A    between atoms: _219  and  _221
REMARK   87  A    between atoms: _221  and  _222
REMARK   88  A    between atoms: _221  and  _224
REMARK   89  A    between atoms: _224  and  _225
REMARK   90  A    between atoms: _235  and  _237
REMARK   91  A    between atoms: _237  and  _238
REMARK   92  A    between atoms: _237  and  _240
REMARK   93  A    between atoms: _240  and  _241
REMARK   94  A    between atoms: _246  and  _248
REMARK   95  A    between atoms: _248  and  _249
REMARK   96  A    between atoms: _248  and  _251
REMARK   97  A    between atoms: _251  and  _252
REMARK   98  A    between atoms: _257  and  _258
REMARK   99  A    between atoms: _260  and  _262
REMARK  100  A    between atoms: _262  and  _263
REMARK  101  A    between atoms: _262  and  _265
REMARK  102  A    between atoms: _265  and  _266
REMARK  103  A    between atoms: _271  and  _272
REMARK  104  A    between atoms: _274  and  _276
REMARK  105  A    between atoms: _276  and  _277
REMARK  106  A    between atoms: _276  and  _279
REMARK  107  A    between atoms: _279  and  _280
REMARK  108  A    between atoms: _280  and  _281
REMARK  109  A    between atoms: _281  and  _282
REMARK  110  A    between atoms: _291  and  _293
REMARK  111  A    between atoms: _293  and  _294
REMARK  112  A    between atoms: _293  and  _296
REMARK  113  A    between atoms: _296  and  _297
REMARK  114  A    between atoms: _297  and  _298
REMARK  115  A    between atoms: _298  and  _299
REMARK  116  A    between atoms: _299  and  _300
REMARK  117  A    between atoms: _304  and  _306
REMARK  118  A    between atoms: _306  and  _307
REMARK  119  A    between atoms: _306  and  _309
REMARK  120  A    between atoms: _309  and  _310
REMARK  121  A    between atoms: _310  and  _311
REMARK  122  A    between atoms: _314  and  _316
REMARK  123  A    between atoms: _316  and  _317
REMARK  124  A    between atoms: _316  and  _319
REMARK  125  A    between atoms: _322  and  _324
REMARK  126  A    between atoms: _324  and  _325
REMARK  127  A    between atoms: _324  and  _327
REMARK  128  A    between atoms: _327  and  _328
REMARK  129  A    between atoms: _338  and  _340
REMARK  130  A    between atoms: _340  and  _341
REMARK  131  A    between atoms: _340  and  _343
REMARK  132  A    between atoms: _343  and  _344
REMARK  133  A    between atoms: _344  and  _345
REMARK                            x       y       z     vdW  Elec       q    Type
REMARK                         _______ _______ _______ _____ _____    ______ ____
ROOT
ATOM      1  O   HOH     1      19.782  -1.926  26.294  0.00  0.00    +0.000 OA
ENDROOT
TORSDOF 0
REMARK  Name = ../refined-set-2016/3arv/3arv_pocket.pdb
REMARK  133 active torsions:
REMARK  status: ('A' for Active; 'I' for Inactive)
REMARK    1  A    between atoms: _1  and  _3
REMARK    2  A    between atoms: _3  and  _4
REMARK    3  A    between atoms: _3  and  _6
REMARK    4  A    between atoms: _6  and  _7
REMARK    5  A    between atoms: _17  and  _19
REMARK    6  A    between atoms: _19  and  _20
REMARK    7  A    between atoms: _19  and  _22
REMARK    8  A    between atoms: _22  and  _23
REMARK    9  A    between atoms: _29  and  _31
REMARK   10  A    between atoms: _31  and  _32
REMARK   11  A    between atoms: _31  and  _34
REMARK   12  A    between atoms: _34  and  _35
REMARK   13  A    between atoms: _37  and  _39
REMARK   14  A    between atoms: _39  and  _40
REMARK   15  A    between atoms: _39  and  _42
REMARK   16  A    between atoms: _45  and  _47
REMARK   17  A    between atoms: _47  and  _48
REMARK   18  A    between atoms: _47  and  _50
REMARK   19  A    between atoms: _50  and  _51
REMARK   20  A    between atoms: _53  and  _55
REMARK   21  A    between atoms: _55  and  _56
REMARK   22  A    between atoms: _55  and  _58
REMARK   23  A    between atoms: _61  and  _63
REMARK   24  A    between atoms: _63  and  _64
REMARK   25  A    between atoms: _66  and  _68
REMARK   26  A    between atoms: _68  and  _69
REMARK   27  A    between atoms: _68  and  _71
REMARK   28  A    between atoms: _71  and  _72
REMARK   29  A    between atoms: _82  and  _84
REMARK   30  A    between atoms: _84  and  _85
REMARK   31  A    between atoms: _84  and  _87
REMARK   32  A    between atoms: _87  and  _88
REMARK   33  A    between atoms: _91  and  _93
REMARK   34  A    between atoms: _93  and  _94
REMARK   35  A    between atoms: _93  and  _96
REMARK   36  A    between atoms: _96  and  _97
REMARK   37  A    between atoms: _100  and  _102
REMARK   38  A    between atoms: _102  and  _103
REMARK   39  A    between atoms: _102  and  _105
REMARK   40  A    between atoms: _105  and  _106
REMARK   41  A    between atoms: _106  and  _107
REMARK   42  A    between atoms: _110  and  _112
REMARK   43  A    between atoms: _112  and  _113
REMARK   44  A    between atoms: _112  and  _115
REMARK   45  A    between atoms: _115  and  _116
REMARK   46  A    between atoms: _122  and  _124
REMARK   47  A    between atoms: _124  and  _125
REMARK   48  A    between atoms: _127  and  _129
REMARK   49  A    between atoms: _129  and  _130
REMARK   50  A    between atoms: _132  and  _134
REMARK   51  A    between atoms: _134  and  _135
REMARK   52  A    between atoms: _138  and  _140
REMARK   53  A    between atoms: _140  and  _141
REMARK   54  A    between atoms: _140  and  _143
REMARK   55  A    between atoms: _143  and  _144
REMARK   56  A    between atoms: _144  and  _145
REMARK   57  A    between atoms: _145  and  _146
REMARK   58  A    between atoms: _146  and  _147
REMARK   59  A    between atoms: _151  and  _153
REMARK   60  A    between atoms: _153  and  _154
REMARK   61  A    between atoms: _153  and  _156
REMARK   62  A    between atoms: _156  and  _157
REMARK   63  A    between atoms: _157  and  _158
REMARK   64  A    between atoms: _160  and  _162
REMARK   65  A    between atoms: _162  and  _163
REMARK   66  A    between atoms: _162  and  _165
REMARK   67  A    between atoms: _165  and  _166
REMARK   68  A    between atoms: _171  and  _172
REMARK   69  A    between atoms: _174  and  _176
REMARK   70  A    between atoms: _176  and  _177
REMARK   71  A    between atoms: _176  and  _179
REMARK   72  A    between atoms: _179  and  _180
REMARK   73  A    between atoms: _183  and  _185
REMARK   74  A    between atoms: _185  and  _186
REMARK   75  A    between atoms: _185  and  _188
REMARK   76  A    between atoms: _188  and  _189
REMARK   77  A    between atoms: _195  and  _197
REMARK   78  A    between atoms: _197  and  _198
REMARK   79  A    between atoms: _197  and  _200
REMARK   80  A    between atoms: _200  and  _201
REMARK   81  A    between atoms: _206  and  _207
REMARK   82  A    between atoms: _209  and  _211
REMARK   83  A    between atoms: _211  and  _212
REMARK   84  A    between atoms: _214  and  _216
REMARK   85  A    between atoms: _216  and  _217
REMARK   86  A    between atoms: _219  and  _221
REMARK   87  A    between atoms: _221  and  _222
REMARK   88  A    between atoms: _221  and  _224
REMARK   89  A    between atoms: _224  and  _225
REMARK   90  A    between atoms: _235  and  _237
REMARK   91  A    between atoms: _237  and  _238
REMARK   92  A    between atoms: _237  and  _240
REMARK   93  A    between atoms: _240  and  _241
REMARK   94  A    between atoms: _246  and  _248
REMARK   95  A    between atoms: _248  and  _249
REMARK   96  A    between atoms: _248  and  _251
REMARK   97  A    between atoms: _251  and  _252
REMARK   98  A    between atoms: _257  and  _258
REMARK   99  A    between atoms: _260  and  _262
REMARK  100  A    between atoms: _262  and  _263
REMARK  101  A    between atoms: _262  and  _265
REMARK  102  A    between atoms: _265  and  _266
REMARK  103  A    between atoms: _271  and  _272
REMARK  104  A    between atoms: _274  and  _276
REMARK  105  A    between atoms: _276  and  _277
REMARK  106  A    between atoms: _276  and  _279
REMARK  107  A    between atoms: _279  and  _280
REMARK  108  A    between atoms: _280  and  _281
REMARK  109  A    between atoms: _281  and  _282
REMARK  110  A    between atoms: _291  and  _293
REMARK  111  A    between atoms: _293  and  _294
REMARK  112  A    between atoms: _293  and  _296
REMARK  113  A    between atoms: _296  and  _297
REMARK  114  A    between atoms: _297  and  _298
REMARK  115  A    between atoms: _298  and  _299
REMARK  116  A    between atoms: _299  and  _300
REMARK  117  A    between atoms: _304  and  _306
REMARK  118  A    between atoms: _306  and  _307
REMARK  119  A    between atoms: _306  and  _309
REMARK  120  A    between atoms: _309  and  _310
REMARK  121  A    between atoms: _310  and  _311
REMARK  122  A    between atoms: _314  and  _316
REMARK  123  A    between atoms: _316  and  _317
REMARK  124  A    between atoms: _316  and  _319
REMARK  125  A    between atoms: _322  and  _324
REMARK  126  A    between atoms: _324  and  _325
REMARK  127  A    between atoms: _324  and  _327
REMARK  128  A    between atoms: _327  and  _328
REMARK  129  A    between atoms: _338  and  _340
REMARK  130  A    between atoms: _340  and  _341
REMARK  131  A    between atoms: _340  and  _343
REMARK  132  A    between atoms: _343  and  _344
REMARK  133  A    between atoms: _344  and  _345
REMARK                            x       y       z     vdW  Elec       q    Type
REMARK                         _______ _______ _______ _____ _____    ______ ____
ROOT
ATOM      1  O   HOH     1       9.841  -0.350  25.075  0.00  0.00    +0.000 OA
ENDROOT
TORSDOF 0
REMARK  Name = ../refined-set-2016/3arv/3arv_pocket.pdb
REMARK  133 active torsions:
REMARK  status: ('A' for Active; 'I' for Inactive)
REMARK    1  A    between atoms: _1  and  _3
REMARK    2  A    between atoms: _3  and  _4
REMARK    3  A    between atoms: _3  and  _6
REMARK    4  A    between atoms: _6  and  _7
REMARK    5  A    between atoms: _17  and  _19
REMARK    6  A    between atoms: _19  and  _20
REMARK    7  A    between atoms: _19  and  _22
REMARK    8  A    between atoms: _22  and  _23
REMARK    9  A    between atoms: _29  and  _31
REMARK   10  A    between atoms: _31  and  _32
REMARK   11  A    between atoms: _31  and  _34
REMARK   12  A    between atoms: _34  and  _35
REMARK   13  A    between atoms: _37  and  _39
REMARK   14  A    between atoms: _39  and  _40
REMARK   15  A    between atoms: _39  and  _42
REMARK   16  A    between atoms: _45  and  _47
REMARK   17  A    between atoms: _47  and  _48
REMARK   18  A    between atoms: _47  and  _50
REMARK   19  A    between atoms: _50  and  _51
REMARK   20  A    between atoms: _53  and  _55
REMARK   21  A    between atoms: _55  and  _56
REMARK   22  A    between atoms: _55  and  _58
REMARK   23  A    between atoms: _61  and  _63
REMARK   24  A    between atoms: _63  and  _64
REMARK   25  A    between atoms: _66  and  _68
REMARK   26  A    between atoms: _68  and  _69
REMARK   27  A    between atoms: _68  and  _71
REMARK   28  A    between atoms: _71  and  _72
REMARK   29  A    between atoms: _82  and  _84
REMARK   30  A    between atoms: _84  and  _85
REMARK   31  A    between atoms: _84  and  _87
REMARK   32  A    between atoms: _87  and  _88
REMARK   33  A    between atoms: _91  and  _93
REMARK   34  A    between atoms: _93  and  _94
REMARK   35  A    between atoms: _93  and  _96
REMARK   36  A    between atoms: _96  and  _97
REMARK   37  A    between atoms: _100  and  _102
REMARK   38  A    between atoms: _102  and  _103
REMARK   39  A    between atoms: _102  and  _105
REMARK   40  A    between atoms: _105  and  _106
REMARK   41  A    between atoms: _106  and  _107
REMARK   42  A    between atoms: _110  and  _112
REMARK   43  A    between atoms: _112  and  _113
REMARK   44  A    between atoms: _112  and  _115
REMARK   45  A    between atoms: _115  and  _116
REMARK   46  A    between atoms: _122  and  _124
REMARK   47  A    between atoms: _124  and  _125
REMARK   48  A    between atoms: _127  and  _129
REMARK   49  A    between atoms: _129  and  _130
REMARK   50  A    between atoms: _132  and  _134
REMARK   51  A    between atoms: _134  and  _135
REMARK   52  A    between atoms: _138  and  _140
REMARK   53  A    between atoms: _140  and  _141
REMARK   54  A    between atoms: _140  and  _143
REMARK   55  A    between atoms: _143  and  _144
REMARK   56  A    between atoms: _144  and  _145
REMARK   57  A    between atoms: _145  and  _146
REMARK   58  A    between atoms: _146  and  _147
REMARK   59  A    between atoms: _151  and  _153
REMARK   60  A    between atoms: _153  and  _154
REMARK   61  A    between atoms: _153  and  _156
REMARK   62  A    between atoms: _156  and  _157
REMARK   63  A    between atoms: _157  and  _158
REMARK   64  A    between atoms: _160  and  _162
REMARK   65  A    between atoms: _162  and  _163
REMARK   66  A    between atoms: _162  and  _165
REMARK   67  A    between atoms: _165  and  _166
REMARK   68  A    between atoms: _171  and  _172
REMARK   69  A    between atoms: _174  and  _176
REMARK   70  A    between atoms: _176  and  _177
REMARK   71  A    between atoms: _176  and  _179
REMARK   72  A    between atoms: _179  and  _180
REMARK   73  A    between atoms: _183  and  _185
REMARK   74  A    between atoms: _185  and  _186
REMARK   75  A    between atoms: _185  and  _188
REMARK   76  A    between atoms: _188  and  _189
REMARK   77  A    between atoms: _195  and  _197
REMARK   78  A    between atoms: _197  and  _198
REMARK   79  A    between atoms: _197  and  _200
REMARK   80  A    between atoms: _200  and  _201
REMARK   81  A    between atoms: _206  and  _207
REMARK   82  A    between atoms: _209  and  _211
REMARK   83  A    between atoms: _211  and  _212
REMARK   84  A    between atoms: _214  and  _216
REMARK   85  A    between atoms: _216  and  _217
REMARK   86  A    between atoms: _219  and  _221
REMARK   87  A    between atoms: _221  and  _222
REMARK   88  A    between atoms: _221  and  _224
REMARK   89  A    between atoms: _224  and  _225
REMARK   90  A    between atoms: _235  and  _237
REMARK   91  A    between atoms: _237  and  _238
REMARK   92  A    between atoms: _237  and  _240
REMARK   93  A    between atoms: _240  and  _241
REMARK   94  A    between atoms: _246  and  _248
REMARK   95  A    between atoms: _248  and  _249
REMARK   96  A    between atoms: _248  and  _251
REMARK   97  A    between atoms: _251  and  _252
REMARK   98  A    between atoms: _257  and  _258
REMARK   99  A    between atoms: _260  and  _262
REMARK  100  A    between atoms: _262  and  _263
REMARK  101  A    between atoms: _262  and  _265
REMARK  102  A    between atoms: _265  and  _266
REMARK  103  A    between atoms: _271  and  _272
REMARK  104  A    between atoms: _274  and  _276
REMARK  105  A    between atoms: _276  and  _277
REMARK  106  A    between atoms: _276  and  _279
REMARK  107  A    between atoms: _279  and  _280
REMARK  108  A    between atoms: _280  and  _281
REMARK  109  A    between atoms: _281  and  _282
REMARK  110  A    between atoms: _291  and  _293
REMARK  111  A    between atoms: _293  and  _294
REMARK  112  A    between atoms: _293  and  _296
REMARK  113  A    between atoms: _296  and  _297
REMARK  114  A    between atoms: _297  and  _298
REMARK  115  A    between atoms: _298  and  _299
REMARK  116  A    between atoms: _299  and  _300
REMARK  117  A    between atoms: _304  and  _306
REMARK  118  A    between atoms: _306  and  _307
REMARK  119  A    between atoms: _306  and  _309
REMARK  120  A    between atoms: _309  and  _310
REMARK  121  A    between atoms: _310  and  _311
REMARK  122  A    between atoms: _314  and  _316
REMARK  123  A    between atoms: _316  and  _317
REMARK  124  A    between atoms: _316  and  _319
REMARK  125  A    between atoms: _322  and  _324
REMARK  126  A    between atoms: _324  and  _325
REMARK  127  A    between atoms: _324  and  _327
REMARK  128  A    between atoms: _327  and  _328
REMARK  129  A    between atoms: _338  and  _340
REMARK  130  A    between atoms: _340  and  _341
REMARK  131  A    between atoms: _340  and  _343
REMARK  132  A    between atoms: _343  and  _344
REMARK  133  A    between atoms: _344  and  _345
REMARK                            x       y       z     vdW  Elec       q    Type
REMARK                         _______ _______ _______ _____ _____    ______ ____
ROOT
ATOM      1  O   HOH     1      19.089 -13.882  20.222  0.00  0.00    +0.000 OA
ENDROOT
TORSDOF 0
REMARK  Name = ../refined-set-2016/3arv/3arv_pocket.pdb
REMARK  133 active torsions:
REMARK  status: ('A' for Active; 'I' for Inactive)
REMARK    1  A    between atoms: _1  and  _3
REMARK    2  A    between atoms: _3  and  _4
REMARK    3  A    between atoms: _3  and  _6
REMARK    4  A    between atoms: _6  and  _7
REMARK    5  A    between atoms: _17  and  _19
REMARK    6  A    between atoms: _19  and  _20
REMARK    7  A    between atoms: _19  and  _22
REMARK    8  A    between atoms: _22  and  _23
REMARK    9  A    between atoms: _29  and  _31
REMARK   10  A    between atoms: _31  and  _32
REMARK   11  A    between atoms: _31  and  _34
REMARK   12  A    between atoms: _34  and  _35
REMARK   13  A    between atoms: _37  and  _39
REMARK   14  A    between atoms: _39  and  _40
REMARK   15  A    between atoms: _39  and  _42
REMARK   16  A    between atoms: _45  and  _47
REMARK   17  A    between atoms: _47  and  _48
REMARK   18  A    between atoms: _47  and  _50
REMARK   19  A    between atoms: _50  and  _51
REMARK   20  A    between atoms: _53  and  _55
REMARK   21  A    between atoms: _55  and  _56
REMARK   22  A    between atoms: _55  and  _58
REMARK   23  A    between atoms: _61  and  _63
REMARK   24  A    between atoms: _63  and  _64
REMARK   25  A    between atoms: _66  and  _68
REMARK   26  A    between atoms: _68  and  _69
REMARK   27  A    between atoms: _68  and  _71
REMARK   28  A    between atoms: _71  and  _72
REMARK   29  A    between atoms: _82  and  _84
REMARK   30  A    between atoms: _84  and  _85
REMARK   31  A    between atoms: _84  and  _87
REMARK   32  A    between atoms: _87  and  _88
REMARK   33  A    between atoms: _91  and  _93
REMARK   34  A    between atoms: _93  and  _94
REMARK   35  A    between atoms: _93  and  _96
REMARK   36  A    between atoms: _96  and  _97
REMARK   37  A    between atoms: _100  and  _102
REMARK   38  A    between atoms: _102  and  _103
REMARK   39  A    between atoms: _102  and  _105
REMARK   40  A    between atoms: _105  and  _106
REMARK   41  A    between atoms: _106  and  _107
REMARK   42  A    between atoms: _110  and  _112
REMARK   43  A    between atoms: _112  and  _113
REMARK   44  A    between atoms: _112  and  _115
REMARK   45  A    between atoms: _115  and  _116
REMARK   46  A    between atoms: _122  and  _124
REMARK   47  A    between atoms: _124  and  _125
REMARK   48  A    between atoms: _127  and  _129
REMARK   49  A    between atoms: _129  and  _130
REMARK   50  A    between atoms: _132  and  _134
REMARK   51  A    between atoms: _134  and  _135
REMARK   52  A    between atoms: _138  and  _140
REMARK   53  A    between atoms: _140  and  _141
REMARK   54  A    between atoms: _140  and  _143
REMARK   55  A    between atoms: _143  and  _144
REMARK   56  A    between atoms: _144  and  _145
REMARK   57  A    between atoms: _145  and  _146
REMARK   58  A    between atoms: _146  and  _147
REMARK   59  A    between atoms: _151  and  _153
REMARK   60  A    between atoms: _153  and  _154
REMARK   61  A    between atoms: _153  and  _156
REMARK   62  A    between atoms: _156  and  _157
REMARK   63  A    between atoms: _157  and  _158
REMARK   64  A    between atoms: _160  and  _162
REMARK   65  A    between atoms: _162  and  _163
REMARK   66  A    between atoms: _162  and  _165
REMARK   67  A    between atoms: _165  and  _166
REMARK   68  A    between atoms: _171  and  _172
REMARK   69  A    between atoms: _174  and  _176
REMARK   70  A    between atoms: _176  and  _177
REMARK   71  A    between atoms: _176  and  _179
REMARK   72  A    between atoms: _179  and  _180
REMARK   73  A    between atoms: _183  and  _185
REMARK   74  A    between atoms: _185  and  _186
REMARK   75  A    between atoms: _185  and  _188
REMARK   76  A    between atoms: _188  and  _189
REMARK   77  A    between atoms: _195  and  _197
REMARK   78  A    between atoms: _197  and  _198
REMARK   79  A    between atoms: _197  and  _200
REMARK   80  A    between atoms: _200  and  _201
REMARK   81  A    between atoms: _206  and  _207
REMARK   82  A    between atoms: _209  and  _211
REMARK   83  A    between atoms: _211  and  _212
REMARK   84  A    between atoms: _214  and  _216
REMARK   85  A    between atoms: _216  and  _217
REMARK   86  A    between atoms: _219  and  _221
REMARK   87  A    between atoms: _221  and  _222
REMARK   88  A    between atoms: _221  and  _224
REMARK   89  A    between atoms: _224  and  _225
REMARK   90  A    between atoms: _235  and  _237
REMARK   91  A    between atoms: _237  and  _238
REMARK   92  A    between atoms: _237  and  _240
REMARK   93  A    between atoms: _240  and  _241
REMARK   94  A    between atoms: _246  and  _248
REMARK   95  A    between atoms: _248  and  _249
REMARK   96  A    between atoms: _248  and  _251
REMARK   97  A    between atoms: _251  and  _252
REMARK   98  A    between atoms: _257  and  _258
REMARK   99  A    between atoms: _260  and  _262
REMARK  100  A    between atoms: _262  and  _263
REMARK  101  A    between atoms: _262  and  _265
REMARK  102  A    between atoms: _265  and  _266
REMARK  103  A    between atoms: _271  and  _272
REMARK  104  A    between atoms: _274  and  _276
REMARK  105  A    between atoms: _276  and  _277
REMARK  106  A    between atoms: _276  and  _279
REMARK  107  A    between atoms: _279  and  _280
REMARK  108  A    between atoms: _280  and  _281
REMARK  109  A    between atoms: _281  and  _282
REMARK  110  A    between atoms: _291  and  _293
REMARK  111  A    between atoms: _293  and  _294
REMARK  112  A    between atoms: _293  and  _296
REMARK  113  A    between atoms: _296  and  _297
REMARK  114  A    between atoms: _297  and  _298
REMARK  115  A    between atoms: _298  and  _299
REMARK  116  A    between atoms: _299  and  _300
REMARK  117  A    between atoms: _304  and  _306
REMARK  118  A    between atoms: _306  and  _307
REMARK  119  A    between atoms: _306  and  _309
REMARK  120  A    between atoms: _309  and  _310
REMARK  121  A    between atoms: _310  and  _311
REMARK  122  A    between atoms: _314  and  _316
REMARK  123  A    between atoms: _316  and  _317
REMARK  124  A    between atoms: _316  and  _319
REMARK  125  A    between atoms: _322  and  _324
REMARK  126  A    between atoms: _324  and  _325
REMARK  127  A    between atoms: _324  and  _327
REMARK  128  A    between atoms: _327  and  _328
REMARK  129  A    between atoms: _338  and  _340
REMARK  130  A    between atoms: _340  and  _341
REMARK  131  A    between atoms: _340  and  _343
REMARK  132  A    between atoms: _343  and  _344
REMARK  133  A    between atoms: _344  and  _345
REMARK                            x       y       z     vdW  Elec       q    Type
REMARK                         _______ _______ _______ _____ _____    ______ ____
ROOT
ATOM      1  O   HOH     1      26.949  -9.805  13.538  0.00  0.00    +0.000 OA
ENDROOT
TORSDOF 0
REMARK  Name = ../refined-set-2016/3arv/3arv_pocket.pdb
REMARK  133 active torsions:
REMARK  status: ('A' for Active; 'I' for Inactive)
REMARK    1  A    between atoms: _1  and  _3
REMARK    2  A    between atoms: _3  and  _4
REMARK    3  A    between atoms: _3  and  _6
REMARK    4  A    between atoms: _6  and  _7
REMARK    5  A    between atoms: _17  and  _19
REMARK    6  A    between atoms: _19  and  _20
REMARK    7  A    between atoms: _19  and  _22
REMARK    8  A    between atoms: _22  and  _23
REMARK    9  A    between atoms: _29  and  _31
REMARK   10  A    between atoms: _31  and  _32
REMARK   11  A    between atoms: _31  and  _34
REMARK   12  A    between atoms: _34  and  _35
REMARK   13  A    between atoms: _37  and  _39
REMARK   14  A    between atoms: _39  and  _40
REMARK   15  A    between atoms: _39  and  _42
REMARK   16  A    between atoms: _45  and  _47
REMARK   17  A    between atoms: _47  and  _48
REMARK   18  A    between atoms: _47  and  _50
REMARK   19  A    between atoms: _50  and  _51
REMARK   20  A    between atoms: _53  and  _55
REMARK   21  A    between atoms: _55  and  _56
REMARK   22  A    between atoms: _55  and  _58
REMARK   23  A    between atoms: _61  and  _63
REMARK   24  A    between atoms: _63  and  _64
REMARK   25  A    between atoms: _66  and  _68
REMARK   26  A    between atoms: _68  and  _69
REMARK   27  A    between atoms: _68  and  _71
REMARK   28  A    between atoms: _71  and  _72
REMARK   29  A    between atoms: _82  and  _84
REMARK   30  A    between atoms: _84  and  _85
REMARK   31  A    between atoms: _84  and  _87
REMARK   32  A    between atoms: _87  and  _88
REMARK   33  A    between atoms: _91  and  _93
REMARK   34  A    between atoms: _93  and  _94
REMARK   35  A    between atoms: _93  and  _96
REMARK   36  A    between atoms: _96  and  _97
REMARK   37  A    between atoms: _100  and  _102
REMARK   38  A    between atoms: _102  and  _103
REMARK   39  A    between atoms: _102  and  _105
REMARK   40  A    between atoms: _105  and  _106
REMARK   41  A    between atoms: _106  and  _107
REMARK   42  A    between atoms: _110  and  _112
REMARK   43  A    between atoms: _112  and  _113
REMARK   44  A    between atoms: _112  and  _115
REMARK   45  A    between atoms: _115  and  _116
REMARK   46  A    between atoms: _122  and  _124
REMARK   47  A    between atoms: _124  and  _125
REMARK   48  A    between atoms: _127  and  _129
REMARK   49  A    between atoms: _129  and  _130
REMARK   50  A    between atoms: _132  and  _134
REMARK   51  A    between atoms: _134  and  _135
REMARK   52  A    between atoms: _138  and  _140
REMARK   53  A    between atoms: _140  and  _141
REMARK   54  A    between atoms: _140  and  _143
REMARK   55  A    between atoms: _143  and  _144
REMARK   56  A    between atoms: _144  and  _145
REMARK   57  A    between atoms: _145  and  _146
REMARK   58  A    between atoms: _146  and  _147
REMARK   59  A    between atoms: _151  and  _153
REMARK   60  A    between atoms: _153  and  _154
REMARK   61  A    between atoms: _153  and  _156
REMARK   62  A    between atoms: _156  and  _157
REMARK   63  A    between atoms: _157  and  _158
REMARK   64  A    between atoms: _160  and  _162
REMARK   65  A    between atoms: _162  and  _163
REMARK   66  A    between atoms: _162  and  _165
REMARK   67  A    between atoms: _165  and  _166
REMARK   68  A    between atoms: _171  and  _172
REMARK   69  A    between atoms: _174  and  _176
REMARK   70  A    between atoms: _176  and  _177
REMARK   71  A    between atoms: _176  and  _179
REMARK   72  A    between atoms: _179  and  _180
REMARK   73  A    between atoms: _183  and  _185
REMARK   74  A    between atoms: _185  and  _186
REMARK   75  A    between atoms: _185  and  _188
REMARK   76  A    between atoms: _188  and  _189
REMARK   77  A    between atoms: _195  and  _197
REMARK   78  A    between atoms: _197  and  _198
REMARK   79  A    between atoms: _197  and  _200
REMARK   80  A    between atoms: _200  and  _201
REMARK   81  A    between atoms: _206  and  _207
REMARK   82  A    between atoms: _209  and  _211
REMARK   83  A    between atoms: _211  and  _212
REMARK   84  A    between atoms: _214  and  _216
REMARK   85  A    between atoms: _216  and  _217
REMARK   86  A    between atoms: _219  and  _221
REMARK   87  A    between atoms: _221  and  _222
REMARK   88  A    between atoms: _221  and  _224
REMARK   89  A    between atoms: _224  and  _225
REMARK   90  A    between atoms: _235  and  _237
REMARK   91  A    between atoms: _237  and  _238
REMARK   92  A    between atoms: _237  and  _240
REMARK   93  A    between atoms: _240  and  _241
REMARK   94  A    between atoms: _246  and  _248
REMARK   95  A    between atoms: _248  and  _249
REMARK   96  A    between atoms: _248  and  _251
REMARK   97  A    between atoms: _251  and  _252
REMARK   98  A    between atoms: _257  and  _258
REMARK   99  A    between atoms: _260  and  _262
REMARK  100  A    between atoms: _262  and  _263
REMARK  101  A    between atoms: _262  and  _265
REMARK  102  A    between atoms: _265  and  _266
REMARK  103  A    between atoms: _271  and  _272
REMARK  104  A    between atoms: _274  and  _276
REMARK  105  A    between atoms: _276  and  _277
REMARK  106  A    between atoms: _276  and  _279
REMARK  107  A    between atoms: _279  and  _280
REMARK  108  A    between atoms: _280  and  _281
REMARK  109  A    between atoms: _281  and  _282
REMARK  110  A    between atoms: _291  and  _293
REMARK  111  A    between atoms: _293  and  _294
REMARK  112  A    between atoms: _293  and  _296
REMARK  113  A    between atoms: _296  and  _297
REMARK  114  A    between atoms: _297  and  _298
REMARK  115  A    between atoms: _298  and  _299
REMARK  116  A    between atoms: _299  and  _300
REMARK  117  A    between atoms: _304  and  _306
REMARK  118  A    between atoms: _306  and  _307
REMARK  119  A    between atoms: _306  and  _309
REMARK  120  A    between atoms: _309  and  _310
REMARK  121  A    between atoms: _310  and  _311
REMARK  122  A    between atoms: _314  and  _316
REMARK  123  A    between atoms: _316  and  _317
REMARK  124  A    between atoms: _316  and  _319
REMARK  125  A    between atoms: _322  and  _324
REMARK  126  A    between atoms: _324  and  _325
REMARK  127  A    between atoms: _324  and  _327
REMARK  128  A    between atoms: _327  and  _328
REMARK  129  A    between atoms: _338  and  _340
REMARK  130  A    between atoms: _340  and  _341
REMARK  131  A    between atoms: _340  and  _343
REMARK  132  A    between atoms: _343  and  _344
REMARK  133  A    between atoms: _344  and  _345
REMARK                            x       y       z     vdW  Elec       q    Type
REMARK                         _______ _______ _______ _____ _____    ______ ____
ROOT
ATOM      1  O   HOH     1       9.841  -9.724  26.761  0.00  0.00    +0.000 OA
ENDROOT
TORSDOF 0
REMARK  Name = ../refined-set-2016/3arv/3arv_pocket.pdb
REMARK  133 active torsions:
REMARK  status: ('A' for Active; 'I' for Inactive)
REMARK    1  A    between atoms: _1  and  _3
REMARK    2  A    between atoms: _3  and  _4
REMARK    3  A    between atoms: _3  and  _6
REMARK    4  A    between atoms: _6  and  _7
REMARK    5  A    between atoms: _17  and  _19
REMARK    6  A    between atoms: _19  and  _20
REMARK    7  A    between atoms: _19  and  _22
REMARK    8  A    between atoms: _22  and  _23
REMARK    9  A    between atoms: _29  and  _31
REMARK   10  A    between atoms: _31  and  _32
REMARK   11  A    between atoms: _31  and  _34
REMARK   12  A    between atoms: _34  and  _35
REMARK   13  A    between atoms: _37  and  _39
REMARK   14  A    between atoms: _39  and  _40
REMARK   15  A    between atoms: _39  and  _42
REMARK   16  A    between atoms: _45  and  _47
REMARK   17  A    between atoms: _47  and  _48
REMARK   18  A    between atoms: _47  and  _50
REMARK   19  A    between atoms: _50  and  _51
REMARK   20  A    between atoms: _53  and  _55
REMARK   21  A    between atoms: _55  and  _56
REMARK   22  A    between atoms: _55  and  _58
REMARK   23  A    between atoms: _61  and  _63
REMARK   24  A    between atoms: _63  and  _64
REMARK   25  A    between atoms: _66  and  _68
REMARK   26  A    between atoms: _68  and  _69
REMARK   27  A    between atoms: _68  and  _71
REMARK   28  A    between atoms: _71  and  _72
REMARK   29  A    between atoms: _82  and  _84
REMARK   30  A    between atoms: _84  and  _85
REMARK   31  A    between atoms: _84  and  _87
REMARK   32  A    between atoms: _87  and  _88
REMARK   33  A    between atoms: _91  and  _93
REMARK   34  A    between atoms: _93  and  _94
REMARK   35  A    between atoms: _93  and  _96
REMARK   36  A    between atoms: _96  and  _97
REMARK   37  A    between atoms: _100  and  _102
REMARK   38  A    between atoms: _102  and  _103
REMARK   39  A    between atoms: _102  and  _105
REMARK   40  A    between atoms: _105  and  _106
REMARK   41  A    between atoms: _106  and  _107
REMARK   42  A    between atoms: _110  and  _112
REMARK   43  A    between atoms: _112  and  _113
REMARK   44  A    between atoms: _112  and  _115
REMARK   45  A    between atoms: _115  and  _116
REMARK   46  A    between atoms: _122  and  _124
REMARK   47  A    between atoms: _124  and  _125
REMARK   48  A    between atoms: _127  and  _129
REMARK   49  A    between atoms: _129  and  _130
REMARK   50  A    between atoms: _132  and  _134
REMARK   51  A    between atoms: _134  and  _135
REMARK   52  A    between atoms: _138  and  _140
REMARK   53  A    between atoms: _140  and  _141
REMARK   54  A    between atoms: _140  and  _143
REMARK   55  A    between atoms: _143  and  _144
REMARK   56  A    between atoms: _144  and  _145
REMARK   57  A    between atoms: _145  and  _146
REMARK   58  A    between atoms: _146  and  _147
REMARK   59  A    between atoms: _151  and  _153
REMARK   60  A    between atoms: _153  and  _154
REMARK   61  A    between atoms: _153  and  _156
REMARK   62  A    between atoms: _156  and  _157
REMARK   63  A    between atoms: _157  and  _158
REMARK   64  A    between atoms: _160  and  _162
REMARK   65  A    between atoms: _162  and  _163
REMARK   66  A    between atoms: _162  and  _165
REMARK   67  A    between atoms: _165  and  _166
REMARK   68  A    between atoms: _171  and  _172
REMARK   69  A    between atoms: _174  and  _176
REMARK   70  A    between atoms: _176  and  _177
REMARK   71  A    between atoms: _176  and  _179
REMARK   72  A    between atoms: _179  and  _180
REMARK   73  A    between atoms: _183  and  _185
REMARK   74  A    between atoms: _185  and  _186
REMARK   75  A    between atoms: _185  and  _188
REMARK   76  A    between atoms: _188  and  _189
REMARK   77  A    between atoms: _195  and  _197
REMARK   78  A    between atoms: _197  and  _198
REMARK   79  A    between atoms: _197  and  _200
REMARK   80  A    between atoms: _200  and  _201
REMARK   81  A    between atoms: _206  and  _207
REMARK   82  A    between atoms: _209  and  _211
REMARK   83  A    between atoms: _211  and  _212
REMARK   84  A    between atoms: _214  and  _216
REMARK   85  A    between atoms: _216  and  _217
REMARK   86  A    between atoms: _219  and  _221
REMARK   87  A    between atoms: _221  and  _222
REMARK   88  A    between atoms: _221  and  _224
REMARK   89  A    between atoms: _224  and  _225
REMARK   90  A    between atoms: _235  and  _237
REMARK   91  A    between atoms: _237  and  _238
REMARK   92  A    between atoms: _237  and  _240
REMARK   93  A    between atoms: _240  and  _241
REMARK   94  A    between atoms: _246  and  _248
REMARK   95  A    between atoms: _248  and  _249
REMARK   96  A    between atoms: _248  and  _251
REMARK   97  A    between atoms: _251  and  _252
REMARK   98  A    between atoms: _257  and  _258
REMARK   99  A    between atoms: _260  and  _262
REMARK  100  A    between atoms: _262  and  _263
REMARK  101  A    between atoms: _262  and  _265
REMARK  102  A    between atoms: _265  and  _266
REMARK  103  A    between atoms: _271  and  _272
REMARK  104  A    between atoms: _274  and  _276
REMARK  105  A    between atoms: _276  and  _277
REMARK  106  A    between atoms: _276  and  _279
REMARK  107  A    between atoms: _279  and  _280
REMARK  108  A    between atoms: _280  and  _281
REMARK  109  A    between atoms: _281  and  _282
REMARK  110  A    between atoms: _291  and  _293
REMARK  111  A    between atoms: _293  and  _294
REMARK  112  A    between atoms: _293  and  _296
REMARK  113  A    between atoms: _296  and  _297
REMARK  114  A    between atoms: _297  and  _298
REMARK  115  A    between atoms: _298  and  _299
REMARK  116  A    between atoms: _299  and  _300
REMARK  117  A    between atoms: _304  and  _306
REMARK  118  A    between atoms: _306  and  _307
REMARK  119  A    between atoms: _306  and  _309
REMARK  120  A    between atoms: _309  and  _310
REMARK  121  A    between atoms: _310  and  _311
REMARK  122  A    between atoms: _314  and  _316
REMARK  123  A    between atoms: _316  and  _317
REMARK  124  A    between atoms: _316  and  _319
REMARK  125  A    between atoms: _322  and  _324
REMARK  126  A    between atoms: _324  and  _325
REMARK  127  A    between atoms: _324  and  _327
REMARK  128  A    between atoms: _327  and  _328
REMARK  129  A    between atoms: _338  and  _340
REMARK  130  A    between atoms: _340  and  _341
REMARK  131  A    between atoms: _340  and  _343
REMARK  132  A    between atoms: _343  and  _344
REMARK  133  A    between atoms: _344  and  _345
REMARK                            x       y       z     vdW  Elec       q    Type
REMARK                         _______ _______ _______ _____ _____    ______ ____
ROOT
ATOM      1  O   HOH     1      19.369 -15.549  19.262  0.00  0.00    +0.000 OA
ENDROOT
TORSDOF 0
REMARK  Name = ../refined-set-2016/3arv/3arv_pocket.pdb
REMARK  133 active torsions:
REMARK  status: ('A' for Active; 'I' for Inactive)
REMARK    1  A    between atoms: _1  and  _3
REMARK    2  A    between atoms: _3  and  _4
REMARK    3  A    between atoms: _3  and  _6
REMARK    4  A    between atoms: _6  and  _7
REMARK    5  A    between atoms: _17  and  _19
REMARK    6  A    between atoms: _19  and  _20
REMARK    7  A    between atoms: _19  and  _22
REMARK    8  A    between atoms: _22  and  _23
REMARK    9  A    between atoms: _29  and  _31
REMARK   10  A    between atoms: _31  and  _32
REMARK   11  A    between atoms: _31  and  _34
REMARK   12  A    between atoms: _34  and  _35
REMARK   13  A    between atoms: _37  and  _39
REMARK   14  A    between atoms: _39  and  _40
REMARK   15  A    between atoms: _39  and  _42
REMARK   16  A    between atoms: _45  and  _47
REMARK   17  A    between atoms: _47  and  _48
REMARK   18  A    between atoms: _47  and  _50
REMARK   19  A    between atoms: _50  and  _51
REMARK   20  A    between atoms: _53  and  _55
REMARK   21  A    between atoms: _55  and  _56
REMARK   22  A    between atoms: _55  and  _58
REMARK   23  A    between atoms: _61  and  _63
REMARK   24  A    between atoms: _63  and  _64
REMARK   25  A    between atoms: _66  and  _68
REMARK   26  A    between atoms: _68  and  _69
REMARK   27  A    between atoms: _68  and  _71
REMARK   28  A    between atoms: _71  and  _72
REMARK   29  A    between atoms: _82  and  _84
REMARK   30  A    between atoms: _84  and  _85
REMARK   31  A    between atoms: _84  and  _87
REMARK   32  A    between atoms: _87  and  _88
REMARK   33  A    between atoms: _91  and  _93
REMARK   34  A    between atoms: _93  and  _94
REMARK   35  A    between atoms: _93  and  _96
REMARK   36  A    between atoms: _96  and  _97
REMARK   37  A    between atoms: _100  and  _102
REMARK   38  A    between atoms: _102  and  _103
REMARK   39  A    between atoms: _102  and  _105
REMARK   40  A    between atoms: _105  and  _106
REMARK   41  A    between atoms: _106  and  _107
REMARK   42  A    between atoms: _110  and  _112
REMARK   43  A    between atoms: _112  and  _113
REMARK   44  A    between atoms: _112  and  _115
REMARK   45  A    between atoms: _115  and  _116
REMARK   46  A    between atoms: _122  and  _124
REMARK   47  A    between atoms: _124  and  _125
REMARK   48  A    between atoms: _127  and  _129
REMARK   49  A    between atoms: _129  and  _130
REMARK   50  A    between atoms: _132  and  _134
REMARK   51  A    between atoms: _134  and  _135
REMARK   52  A    between atoms: _138  and  _140
REMARK   53  A    between atoms: _140  and  _141
REMARK   54  A    between atoms: _140  and  _143
REMARK   55  A    between atoms: _143  and  _144
REMARK   56  A    between atoms: _144  and  _145
REMARK   57  A    between atoms: _145  and  _146
REMARK   58  A    between atoms: _146  and  _147
REMARK   59  A    between atoms: _151  and  _153
REMARK   60  A    between atoms: _153  and  _154
REMARK   61  A    between atoms: _153  and  _156
REMARK   62  A    between atoms: _156  and  _157
REMARK   63  A    between atoms: _157  and  _158
REMARK   64  A    between atoms: _160  and  _162
REMARK   65  A    between atoms: _162  and  _163
REMARK   66  A    between atoms: _162  and  _165
REMARK   67  A    between atoms: _165  and  _166
REMARK   68  A    between atoms: _171  and  _172
REMARK   69  A    between atoms: _174  and  _176
REMARK   70  A    between atoms: _176  and  _177
REMARK   71  A    between atoms: _176  and  _179
REMARK   72  A    between atoms: _179  and  _180
REMARK   73  A    between atoms: _183  and  _185
REMARK   74  A    between atoms: _185  and  _186
REMARK   75  A    between atoms: _185  and  _188
REMARK   76  A    between atoms: _188  and  _189
REMARK   77  A    between atoms: _195  and  _197
REMARK   78  A    between atoms: _197  and  _198
REMARK   79  A    between atoms: _197  and  _200
REMARK   80  A    between atoms: _200  and  _201
REMARK   81  A    between atoms: _206  and  _207
REMARK   82  A    between atoms: _209  and  _211
REMARK   83  A    between atoms: _211  and  _212
REMARK   84  A    between atoms: _214  and  _216
REMARK   85  A    between atoms: _216  and  _217
REMARK   86  A    between atoms: _219  and  _221
REMARK   87  A    between atoms: _221  and  _222
REMARK   88  A    between atoms: _221  and  _224
REMARK   89  A    between atoms: _224  and  _225
REMARK   90  A    between atoms: _235  and  _237
REMARK   91  A    between atoms: _237  and  _238
REMARK   92  A    between atoms: _237  and  _240
REMARK   93  A    between atoms: _240  and  _241
REMARK   94  A    between atoms: _246  and  _248
REMARK   95  A    between atoms: _248  and  _249
REMARK   96  A    between atoms: _248  and  _251
REMARK   97  A    between atoms: _251  and  _252
REMARK   98  A    between atoms: _257  and  _258
REMARK   99  A    between atoms: _260  and  _262
REMARK  100  A    between atoms: _262  and  _263
REMARK  101  A    between atoms: _262  and  _265
REMARK  102  A    between atoms: _265  and  _266
REMARK  103  A    between atoms: _271  and  _272
REMARK  104  A    between atoms: _274  and  _276
REMARK  105  A    between atoms: _276  and  _277
REMARK  106  A    between atoms: _276  and  _279
REMARK  107  A    between atoms: _279  and  _280
REMARK  108  A    between atoms: _280  and  _281
REMARK  109  A    between atoms: _281  and  _282
REMARK  110  A    between atoms: _291  and  _293
REMARK  111  A    between atoms: _293  and  _294
REMARK  112  A    between atoms: _293  and  _296
REMARK  113  A    between atoms: _296  and  _297
REMARK  114  A    between atoms: _297  and  _298
REMARK  115  A    between atoms: _298  and  _299
REMARK  116  A    between atoms: _299  and  _300
REMARK  117  A    between atoms: _304  and  _306
REMARK  118  A    between atoms: _306  and  _307
REMARK  119  A    between atoms: _306  and  _309
REMARK  120  A    between atoms: _309  and  _310
REMARK  121  A    between atoms: _310  and  _311
REMARK  122  A    between atoms: _314  and  _316
REMARK  123  A    between atoms: _316  and  _317
REMARK  124  A    between atoms: _316  and  _319
REMARK  125  A    between atoms: _322  and  _324
REMARK  126  A    between atoms: _324  and  _325
REMARK  127  A    between atoms: _324  and  _327
REMARK  128  A    between atoms: _327  and  _328
REMARK  129  A    between atoms: _338  and  _340
REMARK  130  A    between atoms: _340  and  _341
REMARK  131  A    between atoms: _340  and  _343
REMARK  132  A    between atoms: _343  and  _344
REMARK  133  A    between atoms: _344  and  _345
REMARK                            x       y       z     vdW  Elec       q    Type
REMARK                         _______ _______ _______ _____ _____    ______ ____
ROOT
ATOM      1  O   HOH     1      21.117 -13.831  23.874  0.00  0.00    +0.000 OA
ENDROOT
TORSDOF 0
REMARK  Name = ../refined-set-2016/3arv/3arv_pocket.pdb
REMARK  133 active torsions:
REMARK  status: ('A' for Active; 'I' for Inactive)
REMARK    1  A    between atoms: _1  and  _3
REMARK    2  A    between atoms: _3  and  _4
REMARK    3  A    between atoms: _3  and  _6
REMARK    4  A    between atoms: _6  and  _7
REMARK    5  A    between atoms: _17  and  _19
REMARK    6  A    between atoms: _19  and  _20
REMARK    7  A    between atoms: _19  and  _22
REMARK    8  A    between atoms: _22  and  _23
REMARK    9  A    between atoms: _29  and  _31
REMARK   10  A    between atoms: _31  and  _32
REMARK   11  A    between atoms: _31  and  _34
REMARK   12  A    between atoms: _34  and  _35
REMARK   13  A    between atoms: _37  and  _39
REMARK   14  A    between atoms: _39  and  _40
REMARK   15  A    between atoms: _39  and  _42
REMARK   16  A    between atoms: _45  and  _47
REMARK   17  A    between atoms: _47  and  _48
REMARK   18  A    between atoms: _47  and  _50
REMARK   19  A    between atoms: _50  and  _51
REMARK   20  A    between atoms: _53  and  _55
REMARK   21  A    between atoms: _55  and  _56
REMARK   22  A    between atoms: _55  and  _58
REMARK   23  A    between atoms: _61  and  _63
REMARK   24  A    between atoms: _63  and  _64
REMARK   25  A    between atoms: _66  and  _68
REMARK   26  A    between atoms: _68  and  _69
REMARK   27  A    between atoms: _68  and  _71
REMARK   28  A    between atoms: _71  and  _72
REMARK   29  A    between atoms: _82  and  _84
REMARK   30  A    between atoms: _84  and  _85
REMARK   31  A    between atoms: _84  and  _87
REMARK   32  A    between atoms: _87  and  _88
REMARK   33  A    between atoms: _91  and  _93
REMARK   34  A    between atoms: _93  and  _94
REMARK   35  A    between atoms: _93  and  _96
REMARK   36  A    between atoms: _96  and  _97
REMARK   37  A    between atoms: _100  and  _102
REMARK   38  A    between atoms: _102  and  _103
REMARK   39  A    between atoms: _102  and  _105
REMARK   40  A    between atoms: _105  and  _106
REMARK   41  A    between atoms: _106  and  _107
REMARK   42  A    between atoms: _110  and  _112
REMARK   43  A    between atoms: _112  and  _113
REMARK   44  A    between atoms: _112  and  _115
REMARK   45  A    between atoms: _115  and  _116
REMARK   46  A    between atoms: _122  and  _124
REMARK   47  A    between atoms: _124  and  _125
REMARK   48  A    between atoms: _127  and  _129
REMARK   49  A    between atoms: _129  and  _130
REMARK   50  A    between atoms: _132  and  _134
REMARK   51  A    between atoms: _134  and  _135
REMARK   52  A    between atoms: _138  and  _140
REMARK   53  A    between atoms: _140  and  _141
REMARK   54  A    between atoms: _140  and  _143
REMARK   55  A    between atoms: _143  and  _144
REMARK   56  A    between atoms: _144  and  _145
REMARK   57  A    between atoms: _145  and  _146
REMARK   58  A    between atoms: _146  and  _147
REMARK   59  A    between atoms: _151  and  _153
REMARK   60  A    between atoms: _153  and  _154
REMARK   61  A    between atoms: _153  and  _156
REMARK   62  A    between atoms: _156  and  _157
REMARK   63  A    between atoms: _157  and  _158
REMARK   64  A    between atoms: _160  and  _162
REMARK   65  A    between atoms: _162  and  _163
REMARK   66  A    between atoms: _162  and  _165
REMARK   67  A    between atoms: _165  and  _166
REMARK   68  A    between atoms: _171  and  _172
REMARK   69  A    between atoms: _174  and  _176
REMARK   70  A    between atoms: _176  and  _177
REMARK   71  A    between atoms: _176  and  _179
REMARK   72  A    between atoms: _179  and  _180
REMARK   73  A    between atoms: _183  and  _185
REMARK   74  A    between atoms: _185  and  _186
REMARK   75  A    between atoms: _185  and  _188
REMARK   76  A    between atoms: _188  and  _189
REMARK   77  A    between atoms: _195  and  _197
REMARK   78  A    between atoms: _197  and  _198
REMARK   79  A    between atoms: _197  and  _200
REMARK   80  A    between atoms: _200  and  _201
REMARK   81  A    between atoms: _206  and  _207
REMARK   82  A    between atoms: _209  and  _211
REMARK   83  A    between atoms: _211  and  _212
REMARK   84  A    between atoms: _214  and  _216
REMARK   85  A    between atoms: _216  and  _217
REMARK   86  A    between atoms: _219  and  _221
REMARK   87  A    between atoms: _221  and  _222
REMARK   88  A    between atoms: _221  and  _224
REMARK   89  A    between atoms: _224  and  _225
REMARK   90  A    between atoms: _235  and  _237
REMARK   91  A    between atoms: _237  and  _238
REMARK   92  A    between atoms: _237  and  _240
REMARK   93  A    between atoms: _240  and  _241
REMARK   94  A    between atoms: _246  and  _248
REMARK   95  A    between atoms: _248  and  _249
REMARK   96  A    between atoms: _248  and  _251
REMARK   97  A    between atoms: _251  and  _252
REMARK   98  A    between atoms: _257  and  _258
REMARK   99  A    between atoms: _260  and  _262
REMARK  100  A    between atoms: _262  and  _263
REMARK  101  A    between atoms: _262  and  _265
REMARK  102  A    between atoms: _265  and  _266
REMARK  103  A    between atoms: _271  and  _272
REMARK  104  A    between atoms: _274  and  _276
REMARK  105  A    between atoms: _276  and  _277
REMARK  106  A    between atoms: _276  and  _279
REMARK  107  A    between atoms: _279  and  _280
REMARK  108  A    between atoms: _280  and  _281
REMARK  109  A    between atoms: _281  and  _282
REMARK  110  A    between atoms: _291  and  _293
REMARK  111  A    between atoms: _293  and  _294
REMARK  112  A    between atoms: _293  and  _296
REMARK  113  A    between atoms: _296  and  _297
REMARK  114  A    between atoms: _297  and  _298
REMARK  115  A    between atoms: _298  and  _299
REMARK  116  A    between atoms: _299  and  _300
REMARK  117  A    between atoms: _304  and  _306
REMARK  118  A    between atoms: _306  and  _307
REMARK  119  A    between atoms: _306  and  _309
REMARK  120  A    between atoms: _309  and  _310
REMARK  121  A    between atoms: _310  and  _311
REMARK  122  A    between atoms: _314  and  _316
REMARK  123  A    between atoms: _316  and  _317
REMARK  124  A    between atoms: _316  and  _319
REMARK  125  A    between atoms: _322  and  _324
REMARK  126  A    between atoms: _324  and  _325
REMARK  127  A    between atoms: _324  and  _327
REMARK  128  A    between atoms: _327  and  _328
REMARK  129  A    between atoms: _338  and  _340
REMARK  130  A    between atoms: _340  and  _341
REMARK  131  A    between atoms: _340  and  _343
REMARK  132  A    between atoms: _343  and  _344
REMARK  133  A    between atoms: _344  and  _345
REMARK                            x       y       z     vdW  Elec       q    Type
REMARK                         _______ _______ _______ _____ _____    ______ ____
ROOT
ATOM      1  O   HOH     1      17.992 -15.795  15.989  0.00  0.00    +0.000 OA
ENDROOT
TORSDOF 0
REMARK  Name = ../refined-set-2016/3arv/3arv_pocket.pdb
REMARK  133 active torsions:
REMARK  status: ('A' for Active; 'I' for Inactive)
REMARK    1  A    between atoms: _1  and  _3
REMARK    2  A    between atoms: _3  and  _4
REMARK    3  A    between atoms: _3  and  _6
REMARK    4  A    between atoms: _6  and  _7
REMARK    5  A    between atoms: _17  and  _19
REMARK    6  A    between atoms: _19  and  _20
REMARK    7  A    between atoms: _19  and  _22
REMARK    8  A    between atoms: _22  and  _23
REMARK    9  A    between atoms: _29  and  _31
REMARK   10  A    between atoms: _31  and  _32
REMARK   11  A    between atoms: _31  and  _34
REMARK   12  A    between atoms: _34  and  _35
REMARK   13  A    between atoms: _37  and  _39
REMARK   14  A    between atoms: _39  and  _40
REMARK   15  A    between atoms: _39  and  _42
REMARK   16  A    between atoms: _45  and  _47
REMARK   17  A    between atoms: _47  and  _48
REMARK   18  A    between atoms: _47  and  _50
REMARK   19  A    between atoms: _50  and  _51
REMARK   20  A    between atoms: _53  and  _55
REMARK   21  A    between atoms: _55  and  _56
REMARK   22  A    between atoms: _55  and  _58
REMARK   23  A    between atoms: _61  and  _63
REMARK   24  A    between atoms: _63  and  _64
REMARK   25  A    between atoms: _66  and  _68
REMARK   26  A    between atoms: _68  and  _69
REMARK   27  A    between atoms: _68  and  _71
REMARK   28  A    between atoms: _71  and  _72
REMARK   29  A    between atoms: _82  and  _84
REMARK   30  A    between atoms: _84  and  _85
REMARK   31  A    between atoms: _84  and  _87
REMARK   32  A    between atoms: _87  and  _88
REMARK   33  A    between atoms: _91  and  _93
REMARK   34  A    between atoms: _93  and  _94
REMARK   35  A    between atoms: _93  and  _96
REMARK   36  A    between atoms: _96  and  _97
REMARK   37  A    between atoms: _100  and  _102
REMARK   38  A    between atoms: _102  and  _103
REMARK   39  A    between atoms: _102  and  _105
REMARK   40  A    between atoms: _105  and  _106
REMARK   41  A    between atoms: _106  and  _107
REMARK   42  A    between atoms: _110  and  _112
REMARK   43  A    between atoms: _112  and  _113
REMARK   44  A    between atoms: _112  and  _115
REMARK   45  A    between atoms: _115  and  _116
REMARK   46  A    between atoms: _122  and  _124
REMARK   47  A    between atoms: _124  and  _125
REMARK   48  A    between atoms: _127  and  _129
REMARK   49  A    between atoms: _129  and  _130
REMARK   50  A    between atoms: _132  and  _134
REMARK   51  A    between atoms: _134  and  _135
REMARK   52  A    between atoms: _138  and  _140
REMARK   53  A    between atoms: _140  and  _141
REMARK   54  A    between atoms: _140  and  _143
REMARK   55  A    between atoms: _143  and  _144
REMARK   56  A    between atoms: _144  and  _145
REMARK   57  A    between atoms: _145  and  _146
REMARK   58  A    between atoms: _146  and  _147
REMARK   59  A    between atoms: _151  and  _153
REMARK   60  A    between atoms: _153  and  _154
REMARK   61  A    between atoms: _153  and  _156
REMARK   62  A    between atoms: _156  and  _157
REMARK   63  A    between atoms: _157  and  _158
REMARK   64  A    between atoms: _160  and  _162
REMARK   65  A    between atoms: _162  and  _163
REMARK   66  A    between atoms: _162  and  _165
REMARK   67  A    between atoms: _165  and  _166
REMARK   68  A    between atoms: _171  and  _172
REMARK   69  A    between atoms: _174  and  _176
REMARK   70  A    between atoms: _176  and  _177
REMARK   71  A    between atoms: _176  and  _179
REMARK   72  A    between atoms: _179  and  _180
REMARK   73  A    between atoms: _183  and  _185
REMARK   74  A    between atoms: _185  and  _186
REMARK   75  A    between atoms: _185  and  _188
REMARK   76  A    between atoms: _188  and  _189
REMARK   77  A    between atoms: _195  and  _197
REMARK   78  A    between atoms: _197  and  _198
REMARK   79  A    between atoms: _197  and  _200
REMARK   80  A    between atoms: _200  and  _201
REMARK   81  A    between atoms: _206  and  _207
REMARK   82  A    between atoms: _209  and  _211
REMARK   83  A    between atoms: _211  and  _212
REMARK   84  A    between atoms: _214  and  _216
REMARK   85  A    between atoms: _216  and  _217
REMARK   86  A    between atoms: _219  and  _221
REMARK   87  A    between atoms: _221  and  _222
REMARK   88  A    between atoms: _221  and  _224
REMARK   89  A    between atoms: _224  and  _225
REMARK   90  A    between atoms: _235  and  _237
REMARK   91  A    between atoms: _237  and  _238
REMARK   92  A    between atoms: _237  and  _240
REMARK   93  A    between atoms: _240  and  _241
REMARK   94  A    between atoms: _246  and  _248
REMARK   95  A    between atoms: _248  and  _249
REMARK   96  A    between atoms: _248  and  _251
REMARK   97  A    between atoms: _251  and  _252
REMARK   98  A    between atoms: _257  and  _258
REMARK   99  A    between atoms: _260  and  _262
REMARK  100  A    between atoms: _262  and  _263
REMARK  101  A    between atoms: _262  and  _265
REMARK  102  A    between atoms: _265  and  _266
REMARK  103  A    between atoms: _271  and  _272
REMARK  104  A    between atoms: _274  and  _276
REMARK  105  A    between atoms: _276  and  _277
REMARK  106  A    between atoms: _276  and  _279
REMARK  107  A    between atoms: _279  and  _280
REMARK  108  A    between atoms: _280  and  _281
REMARK  109  A    between atoms: _281  and  _282
REMARK  110  A    between atoms: _291  and  _293
REMARK  111  A    between atoms: _293  and  _294
REMARK  112  A    between atoms: _293  and  _296
REMARK  113  A    between atoms: _296  and  _297
REMARK  114  A    between atoms: _297  and  _298
REMARK  115  A    between atoms: _298  and  _299
REMARK  116  A    between atoms: _299  and  _300
REMARK  117  A    between atoms: _304  and  _306
REMARK  118  A    between atoms: _306  and  _307
REMARK  119  A    between atoms: _306  and  _309
REMARK  120  A    between atoms: _309  and  _310
REMARK  121  A    between atoms: _310  and  _311
REMARK  122  A    between atoms: _314  and  _316
REMARK  123  A    between atoms: _316  and  _317
REMARK  124  A    between atoms: _316  and  _319
REMARK  125  A    between atoms: _322  and  _324
REMARK  126  A    between atoms: _324  and  _325
REMARK  127  A    between atoms: _324  and  _327
REMARK  128  A    between atoms: _327  and  _328
REMARK  129  A    between atoms: _338  and  _340
REMARK  130  A    between atoms: _340  and  _341
REMARK  131  A    between atoms: _340  and  _343
REMARK  132  A    between atoms: _343  and  _344
REMARK  133  A    between atoms: _344  and  _345
REMARK                            x       y       z     vdW  Elec       q    Type
REMARK                         _______ _______ _______ _____ _____    ______ ____
ROOT
ATOM      1  O   HOH     1      12.191  -1.052  28.124  0.00  0.00    +0.000 OA
ENDROOT
TORSDOF 0
REMARK  Name = ../refined-set-2016/3arv/3arv_pocket.pdb
REMARK  133 active torsions:
REMARK  status: ('A' for Active; 'I' for Inactive)
REMARK    1  A    between atoms: _1  and  _3
REMARK    2  A    between atoms: _3  and  _4
REMARK    3  A    between atoms: _3  and  _6
REMARK    4  A    between atoms: _6  and  _7
REMARK    5  A    between atoms: _17  and  _19
REMARK    6  A    between atoms: _19  and  _20
REMARK    7  A    between atoms: _19  and  _22
REMARK    8  A    between atoms: _22  and  _23
REMARK    9  A    between atoms: _29  and  _31
REMARK   10  A    between atoms: _31  and  _32
REMARK   11  A    between atoms: _31  and  _34
REMARK   12  A    between atoms: _34  and  _35
REMARK   13  A    between atoms: _37  and  _39
REMARK   14  A    between atoms: _39  and  _40
REMARK   15  A    between atoms: _39  and  _42
REMARK   16  A    between atoms: _45  and  _47
REMARK   17  A    between atoms: _47  and  _48
REMARK   18  A    between atoms: _47  and  _50
REMARK   19  A    between atoms: _50  and  _51
REMARK   20  A    between atoms: _53  and  _55
REMARK   21  A    between atoms: _55  and  _56
REMARK   22  A    between atoms: _55  and  _58
REMARK   23  A    between atoms: _61  and  _63
REMARK   24  A    between atoms: _63  and  _64
REMARK   25  A    between atoms: _66  and  _68
REMARK   26  A    between atoms: _68  and  _69
REMARK   27  A    between atoms: _68  and  _71
REMARK   28  A    between atoms: _71  and  _72
REMARK   29  A    between atoms: _82  and  _84
REMARK   30  A    between atoms: _84  and  _85
REMARK   31  A    between atoms: _84  and  _87
REMARK   32  A    between atoms: _87  and  _88
REMARK   33  A    between atoms: _91  and  _93
REMARK   34  A    between atoms: _93  and  _94
REMARK   35  A    between atoms: _93  and  _96
REMARK   36  A    between atoms: _96  and  _97
REMARK   37  A    between atoms: _100  and  _102
REMARK   38  A    between atoms: _102  and  _103
REMARK   39  A    between atoms: _102  and  _105
REMARK   40  A    between atoms: _105  and  _106
REMARK   41  A    between atoms: _106  and  _107
REMARK   42  A    between atoms: _110  and  _112
REMARK   43  A    between atoms: _112  and  _113
REMARK   44  A    between atoms: _112  and  _115
REMARK   45  A    between atoms: _115  and  _116
REMARK   46  A    between atoms: _122  and  _124
REMARK   47  A    between atoms: _124  and  _125
REMARK   48  A    between atoms: _127  and  _129
REMARK   49  A    between atoms: _129  and  _130
REMARK   50  A    between atoms: _132  and  _134
REMARK   51  A    between atoms: _134  and  _135
REMARK   52  A    between atoms: _138  and  _140
REMARK   53  A    between atoms: _140  and  _141
REMARK   54  A    between atoms: _140  and  _143
REMARK   55  A    between atoms: _143  and  _144
REMARK   56  A    between atoms: _144  and  _145
REMARK   57  A    between atoms: _145  and  _146
REMARK   58  A    between atoms: _146  and  _147
REMARK   59  A    between atoms: _151  and  _153
REMARK   60  A    between atoms: _153  and  _154
REMARK   61  A    between atoms: _153  and  _156
REMARK   62  A    between atoms: _156  and  _157
REMARK   63  A    between atoms: _157  and  _158
REMARK   64  A    between atoms: _160  and  _162
REMARK   65  A    between atoms: _162  and  _163
REMARK   66  A    between atoms: _162  and  _165
REMARK   67  A    between atoms: _165  and  _166
REMARK   68  A    between atoms: _171  and  _172
REMARK   69  A    between atoms: _174  and  _176
REMARK   70  A    between atoms: _176  and  _177
REMARK   71  A    between atoms: _176  and  _179
REMARK   72  A    between atoms: _179  and  _180
REMARK   73  A    between atoms: _183  and  _185
REMARK   74  A    between atoms: _185  and  _186
REMARK   75  A    between atoms: _185  and  _188
REMARK   76  A    between atoms: _188  and  _189
REMARK   77  A    between atoms: _195  and  _197
REMARK   78  A    between atoms: _197  and  _198
REMARK   79  A    between atoms: _197  and  _200
REMARK   80  A    between atoms: _200  and  _201
REMARK   81  A    between atoms: _206  and  _207
REMARK   82  A    between atoms: _209  and  _211
REMARK   83  A    between atoms: _211  and  _212
REMARK   84  A    between atoms: _214  and  _216
REMARK   85  A    between atoms: _216  and  _217
REMARK   86  A    between atoms: _219  and  _221
REMARK   87  A    between atoms: _221  and  _222
REMARK   88  A    between atoms: _221  and  _224
REMARK   89  A    between atoms: _224  and  _225
REMARK   90  A    between atoms: _235  and  _237
REMARK   91  A    between atoms: _237  and  _238
REMARK   92  A    between atoms: _237  and  _240
REMARK   93  A    between atoms: _240  and  _241
REMARK   94  A    between atoms: _246  and  _248
REMARK   95  A    between atoms: _248  and  _249
REMARK   96  A    between atoms: _248  and  _251
REMARK   97  A    between atoms: _251  and  _252
REMARK   98  A    between atoms: _257  and  _258
REMARK   99  A    between atoms: _260  and  _262
REMARK  100  A    between atoms: _262  and  _263
REMARK  101  A    between atoms: _262  and  _265
REMARK  102  A    between atoms: _265  and  _266
REMARK  103  A    between atoms: _271  and  _272
REMARK  104  A    between atoms: _274  and  _276
REMARK  105  A    between atoms: _276  and  _277
REMARK  106  A    between atoms: _276  and  _279
REMARK  107  A    between atoms: _279  and  _280
REMARK  108  A    between atoms: _280  and  _281
REMARK  109  A    between atoms: _281  and  _282
REMARK  110  A    between atoms: _291  and  _293
REMARK  111  A    between atoms: _293  and  _294
REMARK  112  A    between atoms: _293  and  _296
REMARK  113  A    between atoms: _296  and  _297
REMARK  114  A    between atoms: _297  and  _298
REMARK  115  A    between atoms: _298  and  _299
REMARK  116  A    between atoms: _299  and  _300
REMARK  117  A    between atoms: _304  and  _306
REMARK  118  A    between atoms: _306  and  _307
REMARK  119  A    between atoms: _306  and  _309
REMARK  120  A    between atoms: _309  and  _310
REMARK  121  A    between atoms: _310  and  _311
REMARK  122  A    between atoms: _314  and  _316
REMARK  123  A    between atoms: _316  and  _317
REMARK  124  A    between atoms: _316  and  _319
REMARK  125  A    between atoms: _322  and  _324
REMARK  126  A    between atoms: _324  and  _325
REMARK  127  A    between atoms: _324  and  _327
REMARK  128  A    between atoms: _327  and  _328
REMARK  129  A    between atoms: _338  and  _340
REMARK  130  A    between atoms: _340  and  _341
REMARK  131  A    between atoms: _340  and  _343
REMARK  132  A    between atoms: _343  and  _344
REMARK  133  A    between atoms: _344  and  _345
REMARK                            x       y       z     vdW  Elec       q    Type
REMARK                         _______ _______ _______ _____ _____    ______ ____
ROOT
ATOM      1  O   HOH     1      23.242 -10.681  16.393  0.00  0.00    +0.000 OA
ENDROOT
TORSDOF 0
REMARK  Name = ../refined-set-2016/3arv/3arv_pocket.pdb
REMARK  133 active torsions:
REMARK  status: ('A' for Active; 'I' for Inactive)
REMARK    1  A    between atoms: _1  and  _3
REMARK    2  A    between atoms: _3  and  _4
REMARK    3  A    between atoms: _3  and  _6
REMARK    4  A    between atoms: _6  and  _7
REMARK    5  A    between atoms: _17  and  _19
REMARK    6  A    between atoms: _19  and  _20
REMARK    7  A    between atoms: _19  and  _22
REMARK    8  A    between atoms: _22  and  _23
REMARK    9  A    between atoms: _29  and  _31
REMARK   10  A    between atoms: _31  and  _32
REMARK   11  A    between atoms: _31  and  _34
REMARK   12  A    between atoms: _34  and  _35
REMARK   13  A    between atoms: _37  and  _39
REMARK   14  A    between atoms: _39  and  _40
REMARK   15  A    between atoms: _39  and  _42
REMARK   16  A    between atoms: _45  and  _47
REMARK   17  A    between atoms: _47  and  _48
REMARK   18  A    between atoms: _47  and  _50
REMARK   19  A    between atoms: _50  and  _51
REMARK   20  A    between atoms: _53  and  _55
REMARK   21  A    between atoms: _55  and  _56
REMARK   22  A    between atoms: _55  and  _58
REMARK   23  A    between atoms: _61  and  _63
REMARK   24  A    between atoms: _63  and  _64
REMARK   25  A    between atoms: _66  and  _68
REMARK   26  A    between atoms: _68  and  _69
REMARK   27  A    between atoms: _68  and  _71
REMARK   28  A    between atoms: _71  and  _72
REMARK   29  A    between atoms: _82  and  _84
REMARK   30  A    between atoms: _84  and  _85
REMARK   31  A    between atoms: _84  and  _87
REMARK   32  A    between atoms: _87  and  _88
REMARK   33  A    between atoms: _91  and  _93
REMARK   34  A    between atoms: _93  and  _94
REMARK   35  A    between atoms: _93  and  _96
REMARK   36  A    between atoms: _96  and  _97
REMARK   37  A    between atoms: _100  and  _102
REMARK   38  A    between atoms: _102  and  _103
REMARK   39  A    between atoms: _102  and  _105
REMARK   40  A    between atoms: _105  and  _106
REMARK   41  A    between atoms: _106  and  _107
REMARK   42  A    between atoms: _110  and  _112
REMARK   43  A    between atoms: _112  and  _113
REMARK   44  A    between atoms: _112  and  _115
REMARK   45  A    between atoms: _115  and  _116
REMARK   46  A    between atoms: _122  and  _124
REMARK   47  A    between atoms: _124  and  _125
REMARK   48  A    between atoms: _127  and  _129
REMARK   49  A    between atoms: _129  and  _130
REMARK   50  A    between atoms: _132  and  _134
REMARK   51  A    between atoms: _134  and  _135
REMARK   52  A    between atoms: _138  and  _140
REMARK   53  A    between atoms: _140  and  _141
REMARK   54  A    between atoms: _140  and  _143
REMARK   55  A    between atoms: _143  and  _144
REMARK   56  A    between atoms: _144  and  _145
REMARK   57  A    between atoms: _145  and  _146
REMARK   58  A    between atoms: _146  and  _147
REMARK   59  A    between atoms: _151  and  _153
REMARK   60  A    between atoms: _153  and  _154
REMARK   61  A    between atoms: _153  and  _156
REMARK   62  A    between atoms: _156  and  _157
REMARK   63  A    between atoms: _157  and  _158
REMARK   64  A    between atoms: _160  and  _162
REMARK   65  A    between atoms: _162  and  _163
REMARK   66  A    between atoms: _162  and  _165
REMARK   67  A    between atoms: _165  and  _166
REMARK   68  A    between atoms: _171  and  _172
REMARK   69  A    between atoms: _174  and  _176
REMARK   70  A    between atoms: _176  and  _177
REMARK   71  A    between atoms: _176  and  _179
REMARK   72  A    between atoms: _179  and  _180
REMARK   73  A    between atoms: _183  and  _185
REMARK   74  A    between atoms: _185  and  _186
REMARK   75  A    between atoms: _185  and  _188
REMARK   76  A    between atoms: _188  and  _189
REMARK   77  A    between atoms: _195  and  _197
REMARK   78  A    between atoms: _197  and  _198
REMARK   79  A    between atoms: _197  and  _200
REMARK   80  A    between atoms: _200  and  _201
REMARK   81  A    between atoms: _206  and  _207
REMARK   82  A    between atoms: _209  and  _211
REMARK   83  A    between atoms: _211  and  _212
REMARK   84  A    between atoms: _214  and  _216
REMARK   85  A    between atoms: _216  and  _217
REMARK   86  A    between atoms: _219  and  _221
REMARK   87  A    between atoms: _221  and  _222
REMARK   88  A    between atoms: _221  and  _224
REMARK   89  A    between atoms: _224  and  _225
REMARK   90  A    between atoms: _235  and  _237
REMARK   91  A    between atoms: _237  and  _238
REMARK   92  A    between atoms: _237  and  _240
REMARK   93  A    between atoms: _240  and  _241
REMARK   94  A    between atoms: _246  and  _248
REMARK   95  A    between atoms: _248  and  _249
REMARK   96  A    between atoms: _248  and  _251
REMARK   97  A    between atoms: _251  and  _252
REMARK   98  A    between atoms: _257  and  _258
REMARK   99  A    between atoms: _260  and  _262
REMARK  100  A    between atoms: _262  and  _263
REMARK  101  A    between atoms: _262  and  _265
REMARK  102  A    between atoms: _265  and  _266
REMARK  103  A    between atoms: _271  and  _272
REMARK  104  A    between atoms: _274  and  _276
REMARK  105  A    between atoms: _276  and  _277
REMARK  106  A    between atoms: _276  and  _279
REMARK  107  A    between atoms: _279  and  _280
REMARK  108  A    between atoms: _280  and  _281
REMARK  109  A    between atoms: _281  and  _282
REMARK  110  A    between atoms: _291  and  _293
REMARK  111  A    between atoms: _293  and  _294
REMARK  112  A    between atoms: _293  and  _296
REMARK  113  A    between atoms: _296  and  _297
REMARK  114  A    between atoms: _297  and  _298
REMARK  115  A    between atoms: _298  and  _299
REMARK  116  A    between atoms: _299  and  _300
REMARK  117  A    between atoms: _304  and  _306
REMARK  118  A    between atoms: _306  and  _307
REMARK  119  A    between atoms: _306  and  _309
REMARK  120  A    between atoms: _309  and  _310
REMARK  121  A    between atoms: _310  and  _311
REMARK  122  A    between atoms: _314  and  _316
REMARK  123  A    between atoms: _316  and  _317
REMARK  124  A    between atoms: _316  and  _319
REMARK  125  A    between atoms: _322  and  _324
REMARK  126  A    between atoms: _324  and  _325
REMARK  127  A    between atoms: _324  and  _327
REMARK  128  A    between atoms: _327  and  _328
REMARK  129  A    between atoms: _338  and  _340
REMARK  130  A    between atoms: _340  and  _341
REMARK  131  A    between atoms: _340  and  _343
REMARK  132  A    between atoms: _343  and  _344
REMARK  133  A    between atoms: _344  and  _345
REMARK                            x       y       z     vdW  Elec       q    Type
REMARK                         _______ _______ _______ _____ _____    ______ ____
ROOT
ATOM      1  O   HOH     1      11.952 -10.871  21.235  0.00  0.00    +0.000 OA
ENDROOT
TORSDOF 0
