REMARK  Name = ../refined-set-2016/3uj9/3uj9_pocket.pdb
REMARK  164 active torsions:
REMARK  status: ('A' for Active; 'I' for Inactive)
REMARK    1  A    between atoms: _1  and  _3
REMARK    2  A    between atoms: _3  and  _4
REMARK    3  A    between atoms: _3  and  _6
REMARK    4  A    between atoms: _6  and  _7
REMARK    5  A    between atoms: _7  and  _8
REMARK    6  A    between atoms: _13  and  _15
REMARK    7  A    between atoms: _15  and  _16
REMARK    8  A    between atoms: _15  and  _18
REMARK    9  A    between atoms: _18  and  _19
REMARK   10  A    between atoms: _24  and  _25
REMARK   11  A    between atoms: _27  and  _29
REMARK   12  A    between atoms: _29  and  _30
REMARK   13  A    between atoms: _32  and  _34
REMARK   14  A    between atoms: _34  and  _35
REMARK   15  A    between atoms: _34  and  _37
REMARK   16  A    between atoms: _37  and  _38
REMARK   17  A    between atoms: _43  and  _44
REMARK   18  A    between atoms: _46  and  _48
REMARK   19  A    between atoms: _48  and  _49
REMARK   20  A    between atoms: _48  and  _51
REMARK   21  A    between atoms: _51  and  _52
REMARK   22  A    between atoms: _55  and  _57
REMARK   23  A    between atoms: _57  and  _58
REMARK   24  A    between atoms: _57  and  _60
REMARK   25  A    between atoms: _60  and  _61
REMARK   26  A    between atoms: _67  and  _69
REMARK   27  A    between atoms: _69  and  _70
REMARK   28  A    between atoms: _69  and  _72
REMARK   29  A    between atoms: _72  and  _73
REMARK   30  A    between atoms: _78  and  _79
REMARK   31  A    between atoms: _81  and  _83
REMARK   32  A    between atoms: _83  and  _84
REMARK   33  A    between atoms: _83  and  _86
REMARK   34  A    between atoms: _86  and  _87
REMARK   35  A    between atoms: _90  and  _92
REMARK   36  A    between atoms: _92  and  _93
REMARK   37  A    between atoms: _92  and  _95
REMARK   38  A    between atoms: _95  and  _96
REMARK   39  A    between atoms: _98  and  _100
REMARK   40  A    between atoms: _100  and  _101
REMARK   41  A    between atoms: _100  and  _103
REMARK   42  A    between atoms: _103  and  _104
REMARK   43  A    between atoms: _106  and  _108
REMARK   44  A    between atoms: _108  and  _109
REMARK   45  A    between atoms: _111  and  _113
REMARK   46  A    between atoms: _113  and  _114
REMARK   47  A    between atoms: _116  and  _118
REMARK   48  A    between atoms: _118  and  _119
REMARK   49  A    between atoms: _121  and  _123
REMARK   50  A    between atoms: _123  and  _124
REMARK   51  A    between atoms: _126  and  _128
REMARK   52  A    between atoms: _128  and  _129
REMARK   53  A    between atoms: _128  and  _131
REMARK   54  A    between atoms: _131  and  _132
REMARK   55  A    between atoms: _135  and  _137
REMARK   56  A    between atoms: _137  and  _138
REMARK   57  A    between atoms: _137  and  _140
REMARK   58  A    between atoms: _140  and  _141
REMARK   59  A    between atoms: _144  and  _146
REMARK   60  A    between atoms: _146  and  _147
REMARK   61  A    between atoms: _146  and  _149
REMARK   62  A    between atoms: _149  and  _150
REMARK   63  A    between atoms: _150  and  _151
REMARK   64  A    between atoms: _151  and  _152
REMARK   65  A    between atoms: _161  and  _163
REMARK   66  A    between atoms: _163  and  _164
REMARK   67  A    between atoms: _163  and  _166
REMARK   68  A    between atoms: _166  and  _167
REMARK   69  A    between atoms: _170  and  _172
REMARK   70  A    between atoms: _172  and  _173
REMARK   71  A    between atoms: _176  and  _178
REMARK   72  A    between atoms: _178  and  _179
REMARK   73  A    between atoms: _178  and  _181
REMARK   74  A    between atoms: _181  and  _182
REMARK   75  A    between atoms: _185  and  _187
REMARK   76  A    between atoms: _187  and  _188
REMARK   77  A    between atoms: _187  and  _190
REMARK   78  A    between atoms: _190  and  _191
REMARK   79  A    between atoms: _194  and  _196
REMARK   80  A    between atoms: _196  and  _197
REMARK   81  A    between atoms: _196  and  _199
REMARK   82  A    between atoms: _199  and  _200
REMARK   83  A    between atoms: _205  and  _207
REMARK   84  A    between atoms: _207  and  _208
REMARK   85  A    between atoms: _207  and  _210
REMARK   86  A    between atoms: _210  and  _211
REMARK   87  A    between atoms: _214  and  _216
REMARK   88  A    between atoms: _216  and  _217
REMARK   89  A    between atoms: _216  and  _219
REMARK   90  A    between atoms: _219  and  _220
REMARK   91  A    between atoms: _223  and  _225
REMARK   92  A    between atoms: _225  and  _226
REMARK   93  A    between atoms: _225  and  _228
REMARK   94  A    between atoms: _228  and  _229
REMARK   95  A    between atoms: _234  and  _235
REMARK   96  A    between atoms: _237  and  _239
REMARK   97  A    between atoms: _239  and  _240
REMARK   98  A    between atoms: _239  and  _242
REMARK   99  A    between atoms: _242  and  _243
REMARK  100  A    between atoms: _248  and  _249
REMARK  101  A    between atoms: _251  and  _253
REMARK  102  A    between atoms: _253  and  _254
REMARK  103  A    between atoms: _253  and  _256
REMARK  104  A    between atoms: _256  and  _257
REMARK  105  A    between atoms: _257  and  _258
REMARK  106  A    between atoms: _258  and  _259
REMARK  107  A    between atoms: _268  and  _270
REMARK  108  A    between atoms: _270  and  _271
REMARK  109  A    between atoms: _270  and  _273
REMARK  110  A    between atoms: _273  and  _274
REMARK  111  A    between atoms: _279  and  _280
REMARK  112  A    between atoms: _282  and  _284
REMARK  113  A    between atoms: _284  and  _285
REMARK  114  A    between atoms: _284  and  _287
REMARK  115  A    between atoms: _287  and  _288
REMARK  116  A    between atoms: _291  and  _293
REMARK  117  A    between atoms: _293  and  _294
REMARK  118  A    between atoms: _293  and  _296
REMARK  119  A    between atoms: _296  and  _297
REMARK  120  A    between atoms: _307  and  _309
REMARK  121  A    between atoms: _309  and  _310
REMARK  122  A    between atoms: _309  and  _312
REMARK  123  A    between atoms: _312  and  _313
REMARK  124  A    between atoms: _316  and  _318
REMARK  125  A    between atoms: _318  and  _319
REMARK  126  A    between atoms: _318  and  _321
REMARK  127  A    between atoms: _321  and  _322
REMARK  128  A    between atoms: _322  and  _323
REMARK  129  A    between atoms: _326  and  _328
REMARK  130  A    between atoms: _328  and  _329
REMARK  131  A    between atoms: _328  and  _331
REMARK  132  A    between atoms: _331  and  _332
REMARK  133  A    between atoms: _334  and  _336
REMARK  134  A    between atoms: _336  and  _337
REMARK  135  A    between atoms: _336  and  _339
REMARK  136  A    between atoms: _339  and  _340
REMARK  137  A    between atoms: _343  and  _345
REMARK  138  A    between atoms: _345  and  _346
REMARK  139  A    between atoms: _348  and  _350
REMARK  140  A    between atoms: _350  and  _351
REMARK  141  A    between atoms: _350  and  _353
REMARK  142  A    between atoms: _353  and  _354
REMARK  143  A    between atoms: _364  and  _366
REMARK  144  A    between atoms: _366  and  _367
REMARK  145  A    between atoms: _366  and  _369
REMARK  146  A    between atoms: _369  and  _370
REMARK  147  A    between atoms: _370  and  _371
REMARK  148  A    between atoms: _371  and  _372
REMARK  149  A    between atoms: _381  and  _383
REMARK  150  A    between atoms: _383  and  _384
REMARK  151  A    between atoms: _383  and  _386
REMARK  152  A    between atoms: _386  and  _387
REMARK  153  A    between atoms: _387  and  _388
REMARK  154  A    between atoms: _388  and  _389
REMARK  155  A    between atoms: _389  and  _390
REMARK  156  A    between atoms: _394  and  _396
REMARK  157  A    between atoms: _396  and  _397
REMARK  158  A    between atoms: _396  and  _399
REMARK  159  A    between atoms: _399  and  _400
REMARK  160  A    between atoms: _400  and  _401
REMARK  161  A    between atoms: _406  and  _408
REMARK  162  A    between atoms: _408  and  _409
REMARK  163  A    between atoms: _408  and  _411
REMARK  164  A    between atoms: _411  and  _412
REMARK                            x       y       z     vdW  Elec       q    Type
REMARK                         _______ _______ _______ _____ _____    ______ ____
ROOT
ATOM      1  C   GLN A   1      22.141   7.621  15.071  0.00  0.00    +0.238 C 
ATOM      2  N   TYR A   2      23.365   8.026  14.744  0.00  0.00    -0.298 N 
ATOM      3  H   TYR A   2      24.185   7.696  15.293  0.00  0.00    +0.150 HD
ATOM      4  O   GLN A   1      21.156   7.922  14.452  0.00  0.00    -0.274 OA
ENDROOT
BRANCH   1   5
ATOM      5  CA  GLN A   1      22.059   6.732  16.315  0.00  0.00    +0.145 C 
BRANCH   5   6
ATOM      6  N   GLN A   1      23.151   5.785  16.444  0.00  0.00    -0.238 NA
ATOM      7  H   GLN A   1      23.785   5.828  17.267  0.00  0.00    +0.142 HD
ENDBRANCH   5   6
BRANCH   5   8
ATOM      8  CB  GLN A   1      21.972   7.616  17.564  0.00  0.00    +0.036 C 
BRANCH   8   9
ATOM      9  CG  GLN A   1      20.750   8.551  17.521  0.00  0.00    +0.087 C 
BRANCH   9  10
ATOM     10  CD  GLN A   1      20.509   9.263  18.872  0.00  0.00    +0.219 C 
ATOM     11  OE1 GLN A   1      21.322   9.260  19.737  0.00  0.00    -0.275 OA
ATOM     12  NE2 GLN A   1      19.363   9.841  18.994  0.00  0.00    -0.329 N 
ATOM     13 HE21 GLN A   1      19.119  10.331  19.878  0.00  0.00    +0.145 HD
ATOM     14 HE22 GLN A   1      18.682   9.817  18.208  0.00  0.00    +0.145 HD
ENDBRANCH   9  10
ENDBRANCH   8   9
ENDBRANCH   5   8
ENDBRANCH   1   5
BRANCH   2  15
ATOM     15  CA  TYR A   2      23.559   8.926  13.625  0.00  0.00    +0.141 C 
BRANCH  15  16
ATOM     16  C   TYR A   2      24.363   8.307  12.446  0.00  0.00    +0.227 C 
ATOM     17  O   TYR A   2      25.174   8.958  11.880  0.00  0.00    -0.286 OA
ENDBRANCH  15  16
BRANCH  15  18
ATOM     18  CB  TYR A   2      24.199  10.217  14.091  0.00  0.00    +0.054 C 
BRANCH  18  19
ATOM     19  CG  TYR A   2      23.439  10.902  15.224  0.00  0.00    -0.020 A 
ATOM     20  CD2 TYR A   2      23.936  10.866  16.513  0.00  0.00    -0.001 A 
ATOM     21  CE2 TYR A   2      23.224  11.474  17.583  0.00  0.00    +0.036 A 
ATOM     22  CZ  TYR A   2      22.041  12.085  17.345  0.00  0.00    +0.134 A 
ATOM     23  CE1 TYR A   2      21.500  12.114  16.095  0.00  0.00    +0.036 A 
ATOM     24  CD1 TYR A   2      22.200  11.477  15.031  0.00  0.00    -0.001 A 
BRANCH  22  25
ATOM     25  OH  TYR A   2      21.369  12.693  18.388  0.00  0.00    -0.506 OA
ATOM     26  HH  TYR A   2      21.938  13.404  18.776  0.00  0.00    +0.292 HD
ENDBRANCH  22  25
ENDBRANCH  18  19
ENDBRANCH  15  18
ENDBRANCH   2  15
TORSDOF 10
REMARK  Name = ../refined-set-2016/3uj9/3uj9_pocket.pdb
REMARK  164 active torsions:
REMARK  status: ('A' for Active; 'I' for Inactive)
REMARK    1  A    between atoms: _1  and  _3
REMARK    2  A    between atoms: _3  and  _4
REMARK    3  A    between atoms: _3  and  _6
REMARK    4  A    between atoms: _6  and  _7
REMARK    5  A    between atoms: _7  and  _8
REMARK    6  A    between atoms: _13  and  _15
REMARK    7  A    between atoms: _15  and  _16
REMARK    8  A    between atoms: _15  and  _18
REMARK    9  A    between atoms: _18  and  _19
REMARK   10  A    between atoms: _24  and  _25
REMARK   11  A    between atoms: _27  and  _29
REMARK   12  A    between atoms: _29  and  _30
REMARK   13  A    between atoms: _32  and  _34
REMARK   14  A    between atoms: _34  and  _35
REMARK   15  A    between atoms: _34  and  _37
REMARK   16  A    between atoms: _37  and  _38
REMARK   17  A    between atoms: _43  and  _44
REMARK   18  A    between atoms: _46  and  _48
REMARK   19  A    between atoms: _48  and  _49
REMARK   20  A    between atoms: _48  and  _51
REMARK   21  A    between atoms: _51  and  _52
REMARK   22  A    between atoms: _55  and  _57
REMARK   23  A    between atoms: _57  and  _58
REMARK   24  A    between atoms: _57  and  _60
REMARK   25  A    between atoms: _60  and  _61
REMARK   26  A    between atoms: _67  and  _69
REMARK   27  A    between atoms: _69  and  _70
REMARK   28  A    between atoms: _69  and  _72
REMARK   29  A    between atoms: _72  and  _73
REMARK   30  A    between atoms: _78  and  _79
REMARK   31  A    between atoms: _81  and  _83
REMARK   32  A    between atoms: _83  and  _84
REMARK   33  A    between atoms: _83  and  _86
REMARK   34  A    between atoms: _86  and  _87
REMARK   35  A    between atoms: _90  and  _92
REMARK   36  A    between atoms: _92  and  _93
REMARK   37  A    between atoms: _92  and  _95
REMARK   38  A    between atoms: _95  and  _96
REMARK   39  A    between atoms: _98  and  _100
REMARK   40  A    between atoms: _100  and  _101
REMARK   41  A    between atoms: _100  and  _103
REMARK   42  A    between atoms: _103  and  _104
REMARK   43  A    between atoms: _106  and  _108
REMARK   44  A    between atoms: _108  and  _109
REMARK   45  A    between atoms: _111  and  _113
REMARK   46  A    between atoms: _113  and  _114
REMARK   47  A    between atoms: _116  and  _118
REMARK   48  A    between atoms: _118  and  _119
REMARK   49  A    between atoms: _121  and  _123
REMARK   50  A    between atoms: _123  and  _124
REMARK   51  A    between atoms: _126  and  _128
REMARK   52  A    between atoms: _128  and  _129
REMARK   53  A    between atoms: _128  and  _131
REMARK   54  A    between atoms: _131  and  _132
REMARK   55  A    between atoms: _135  and  _137
REMARK   56  A    between atoms: _137  and  _138
REMARK   57  A    between atoms: _137  and  _140
REMARK   58  A    between atoms: _140  and  _141
REMARK   59  A    between atoms: _144  and  _146
REMARK   60  A    between atoms: _146  and  _147
REMARK   61  A    between atoms: _146  and  _149
REMARK   62  A    between atoms: _149  and  _150
REMARK   63  A    between atoms: _150  and  _151
REMARK   64  A    between atoms: _151  and  _152
REMARK   65  A    between atoms: _161  and  _163
REMARK   66  A    between atoms: _163  and  _164
REMARK   67  A    between atoms: _163  and  _166
REMARK   68  A    between atoms: _166  and  _167
REMARK   69  A    between atoms: _170  and  _172
REMARK   70  A    between atoms: _172  and  _173
REMARK   71  A    between atoms: _176  and  _178
REMARK   72  A    between atoms: _178  and  _179
REMARK   73  A    between atoms: _178  and  _181
REMARK   74  A    between atoms: _181  and  _182
REMARK   75  A    between atoms: _185  and  _187
REMARK   76  A    between atoms: _187  and  _188
REMARK   77  A    between atoms: _187  and  _190
REMARK   78  A    between atoms: _190  and  _191
REMARK   79  A    between atoms: _194  and  _196
REMARK   80  A    between atoms: _196  and  _197
REMARK   81  A    between atoms: _196  and  _199
REMARK   82  A    between atoms: _199  and  _200
REMARK   83  A    between atoms: _205  and  _207
REMARK   84  A    between atoms: _207  and  _208
REMARK   85  A    between atoms: _207  and  _210
REMARK   86  A    between atoms: _210  and  _211
REMARK   87  A    between atoms: _214  and  _216
REMARK   88  A    between atoms: _216  and  _217
REMARK   89  A    between atoms: _216  and  _219
REMARK   90  A    between atoms: _219  and  _220
REMARK   91  A    between atoms: _223  and  _225
REMARK   92  A    between atoms: _225  and  _226
REMARK   93  A    between atoms: _225  and  _228
REMARK   94  A    between atoms: _228  and  _229
REMARK   95  A    between atoms: _234  and  _235
REMARK   96  A    between atoms: _237  and  _239
REMARK   97  A    between atoms: _239  and  _240
REMARK   98  A    between atoms: _239  and  _242
REMARK   99  A    between atoms: _242  and  _243
REMARK  100  A    between atoms: _248  and  _249
REMARK  101  A    between atoms: _251  and  _253
REMARK  102  A    between atoms: _253  and  _254
REMARK  103  A    between atoms: _253  and  _256
REMARK  104  A    between atoms: _256  and  _257
REMARK  105  A    between atoms: _257  and  _258
REMARK  106  A    between atoms: _258  and  _259
REMARK  107  A    between atoms: _268  and  _270
REMARK  108  A    between atoms: _270  and  _271
REMARK  109  A    between atoms: _270  and  _273
REMARK  110  A    between atoms: _273  and  _274
REMARK  111  A    between atoms: _279  and  _280
REMARK  112  A    between atoms: _282  and  _284
REMARK  113  A    between atoms: _284  and  _285
REMARK  114  A    between atoms: _284  and  _287
REMARK  115  A    between atoms: _287  and  _288
REMARK  116  A    between atoms: _291  and  _293
REMARK  117  A    between atoms: _293  and  _294
REMARK  118  A    between atoms: _293  and  _296
REMARK  119  A    between atoms: _296  and  _297
REMARK  120  A    between atoms: _307  and  _309
REMARK  121  A    between atoms: _309  and  _310
REMARK  122  A    between atoms: _309  and  _312
REMARK  123  A    between atoms: _312  and  _313
REMARK  124  A    between atoms: _316  and  _318
REMARK  125  A    between atoms: _318  and  _319
REMARK  126  A    between atoms: _318  and  _321
REMARK  127  A    between atoms: _321  and  _322
REMARK  128  A    between atoms: _322  and  _323
REMARK  129  A    between atoms: _326  and  _328
REMARK  130  A    between atoms: _328  and  _329
REMARK  131  A    between atoms: _328  and  _331
REMARK  132  A    between atoms: _331  and  _332
REMARK  133  A    between atoms: _334  and  _336
REMARK  134  A    between atoms: _336  and  _337
REMARK  135  A    between atoms: _336  and  _339
REMARK  136  A    between atoms: _339  and  _340
REMARK  137  A    between atoms: _343  and  _345
REMARK  138  A    between atoms: _345  and  _346
REMARK  139  A    between atoms: _348  and  _350
REMARK  140  A    between atoms: _350  and  _351
REMARK  141  A    between atoms: _350  and  _353
REMARK  142  A    between atoms: _353  and  _354
REMARK  143  A    between atoms: _364  and  _366
REMARK  144  A    between atoms: _366  and  _367
REMARK  145  A    between atoms: _366  and  _369
REMARK  146  A    between atoms: _369  and  _370
REMARK  147  A    between atoms: _370  and  _371
REMARK  148  A    between atoms: _371  and  _372
REMARK  149  A    between atoms: _381  and  _383
REMARK  150  A    between atoms: _383  and  _384
REMARK  151  A    between atoms: _383  and  _386
REMARK  152  A    between atoms: _386  and  _387
REMARK  153  A    between atoms: _387  and  _388
REMARK  154  A    between atoms: _388  and  _389
REMARK  155  A    between atoms: _389  and  _390
REMARK  156  A    between atoms: _394  and  _396
REMARK  157  A    between atoms: _396  and  _397
REMARK  158  A    between atoms: _396  and  _399
REMARK  159  A    between atoms: _399  and  _400
REMARK  160  A    between atoms: _400  and  _401
REMARK  161  A    between atoms: _406  and  _408
REMARK  162  A    between atoms: _408  and  _409
REMARK  163  A    between atoms: _408  and  _411
REMARK  164  A    between atoms: _411  and  _412
REMARK                            x       y       z     vdW  Elec       q    Type
REMARK                         _______ _______ _______ _____ _____    ______ ____
ROOT
ATOM      1  CA  GLY A   1      19.576   7.161  10.817  0.00  0.00    +0.156 C 
ENDROOT
BRANCH   1   2
ATOM      2  N   GLY A   1      20.227   6.663   9.609  0.00  0.00    -0.238 NA
ATOM      3  H   GLY A   1      21.141   6.173   9.682  0.00  0.00    +0.142 HD
ENDBRANCH   1   2
BRANCH   1   4
ATOM      4  C   GLY A   1      19.289   8.649  10.721  0.00  0.00    +0.226 C 
ATOM      5  O   GLY A   1      18.243   9.103  11.059  0.00  0.00    -0.287 OA
ENDBRANCH   1   4
TORSDOF 2
REMARK  Name = ../refined-set-2016/3uj9/3uj9_pocket.pdb
REMARK  164 active torsions:
REMARK  status: ('A' for Active; 'I' for Inactive)
REMARK    1  A    between atoms: _1  and  _3
REMARK    2  A    between atoms: _3  and  _4
REMARK    3  A    between atoms: _3  and  _6
REMARK    4  A    between atoms: _6  and  _7
REMARK    5  A    between atoms: _7  and  _8
REMARK    6  A    between atoms: _13  and  _15
REMARK    7  A    between atoms: _15  and  _16
REMARK    8  A    between atoms: _15  and  _18
REMARK    9  A    between atoms: _18  and  _19
REMARK   10  A    between atoms: _24  and  _25
REMARK   11  A    between atoms: _27  and  _29
REMARK   12  A    between atoms: _29  and  _30
REMARK   13  A    between atoms: _32  and  _34
REMARK   14  A    between atoms: _34  and  _35
REMARK   15  A    between atoms: _34  and  _37
REMARK   16  A    between atoms: _37  and  _38
REMARK   17  A    between atoms: _43  and  _44
REMARK   18  A    between atoms: _46  and  _48
REMARK   19  A    between atoms: _48  and  _49
REMARK   20  A    between atoms: _48  and  _51
REMARK   21  A    between atoms: _51  and  _52
REMARK   22  A    between atoms: _55  and  _57
REMARK   23  A    between atoms: _57  and  _58
REMARK   24  A    between atoms: _57  and  _60
REMARK   25  A    between atoms: _60  and  _61
REMARK   26  A    between atoms: _67  and  _69
REMARK   27  A    between atoms: _69  and  _70
REMARK   28  A    between atoms: _69  and  _72
REMARK   29  A    between atoms: _72  and  _73
REMARK   30  A    between atoms: _78  and  _79
REMARK   31  A    between atoms: _81  and  _83
REMARK   32  A    between atoms: _83  and  _84
REMARK   33  A    between atoms: _83  and  _86
REMARK   34  A    between atoms: _86  and  _87
REMARK   35  A    between atoms: _90  and  _92
REMARK   36  A    between atoms: _92  and  _93
REMARK   37  A    between atoms: _92  and  _95
REMARK   38  A    between atoms: _95  and  _96
REMARK   39  A    between atoms: _98  and  _100
REMARK   40  A    between atoms: _100  and  _101
REMARK   41  A    between atoms: _100  and  _103
REMARK   42  A    between atoms: _103  and  _104
REMARK   43  A    between atoms: _106  and  _108
REMARK   44  A    between atoms: _108  and  _109
REMARK   45  A    between atoms: _111  and  _113
REMARK   46  A    between atoms: _113  and  _114
REMARK   47  A    between atoms: _116  and  _118
REMARK   48  A    between atoms: _118  and  _119
REMARK   49  A    between atoms: _121  and  _123
REMARK   50  A    between atoms: _123  and  _124
REMARK   51  A    between atoms: _126  and  _128
REMARK   52  A    between atoms: _128  and  _129
REMARK   53  A    between atoms: _128  and  _131
REMARK   54  A    between atoms: _131  and  _132
REMARK   55  A    between atoms: _135  and  _137
REMARK   56  A    between atoms: _137  and  _138
REMARK   57  A    between atoms: _137  and  _140
REMARK   58  A    between atoms: _140  and  _141
REMARK   59  A    between atoms: _144  and  _146
REMARK   60  A    between atoms: _146  and  _147
REMARK   61  A    between atoms: _146  and  _149
REMARK   62  A    between atoms: _149  and  _150
REMARK   63  A    between atoms: _150  and  _151
REMARK   64  A    between atoms: _151  and  _152
REMARK   65  A    between atoms: _161  and  _163
REMARK   66  A    between atoms: _163  and  _164
REMARK   67  A    between atoms: _163  and  _166
REMARK   68  A    between atoms: _166  and  _167
REMARK   69  A    between atoms: _170  and  _172
REMARK   70  A    between atoms: _172  and  _173
REMARK   71  A    between atoms: _176  and  _178
REMARK   72  A    between atoms: _178  and  _179
REMARK   73  A    between atoms: _178  and  _181
REMARK   74  A    between atoms: _181  and  _182
REMARK   75  A    between atoms: _185  and  _187
REMARK   76  A    between atoms: _187  and  _188
REMARK   77  A    between atoms: _187  and  _190
REMARK   78  A    between atoms: _190  and  _191
REMARK   79  A    between atoms: _194  and  _196
REMARK   80  A    between atoms: _196  and  _197
REMARK   81  A    between atoms: _196  and  _199
REMARK   82  A    between atoms: _199  and  _200
REMARK   83  A    between atoms: _205  and  _207
REMARK   84  A    between atoms: _207  and  _208
REMARK   85  A    between atoms: _207  and  _210
REMARK   86  A    between atoms: _210  and  _211
REMARK   87  A    between atoms: _214  and  _216
REMARK   88  A    between atoms: _216  and  _217
REMARK   89  A    between atoms: _216  and  _219
REMARK   90  A    between atoms: _219  and  _220
REMARK   91  A    between atoms: _223  and  _225
REMARK   92  A    between atoms: _225  and  _226
REMARK   93  A    between atoms: _225  and  _228
REMARK   94  A    between atoms: _228  and  _229
REMARK   95  A    between atoms: _234  and  _235
REMARK   96  A    between atoms: _237  and  _239
REMARK   97  A    between atoms: _239  and  _240
REMARK   98  A    between atoms: _239  and  _242
REMARK   99  A    between atoms: _242  and  _243
REMARK  100  A    between atoms: _248  and  _249
REMARK  101  A    between atoms: _251  and  _253
REMARK  102  A    between atoms: _253  and  _254
REMARK  103  A    between atoms: _253  and  _256
REMARK  104  A    between atoms: _256  and  _257
REMARK  105  A    between atoms: _257  and  _258
REMARK  106  A    between atoms: _258  and  _259
REMARK  107  A    between atoms: _268  and  _270
REMARK  108  A    between atoms: _270  and  _271
REMARK  109  A    between atoms: _270  and  _273
REMARK  110  A    between atoms: _273  and  _274
REMARK  111  A    between atoms: _279  and  _280
REMARK  112  A    between atoms: _282  and  _284
REMARK  113  A    between atoms: _284  and  _285
REMARK  114  A    between atoms: _284  and  _287
REMARK  115  A    between atoms: _287  and  _288
REMARK  116  A    between atoms: _291  and  _293
REMARK  117  A    between atoms: _293  and  _294
REMARK  118  A    between atoms: _293  and  _296
REMARK  119  A    between atoms: _296  and  _297
REMARK  120  A    between atoms: _307  and  _309
REMARK  121  A    between atoms: _309  and  _310
REMARK  122  A    between atoms: _309  and  _312
REMARK  123  A    between atoms: _312  and  _313
REMARK  124  A    between atoms: _316  and  _318
REMARK  125  A    between atoms: _318  and  _319
REMARK  126  A    between atoms: _318  and  _321
REMARK  127  A    between atoms: _321  and  _322
REMARK  128  A    between atoms: _322  and  _323
REMARK  129  A    between atoms: _326  and  _328
REMARK  130  A    between atoms: _328  and  _329
REMARK  131  A    between atoms: _328  and  _331
REMARK  132  A    between atoms: _331  and  _332
REMARK  133  A    between atoms: _334  and  _336
REMARK  134  A    between atoms: _336  and  _337
REMARK  135  A    between atoms: _336  and  _339
REMARK  136  A    between atoms: _339  and  _340
REMARK  137  A    between atoms: _343  and  _345
REMARK  138  A    between atoms: _345  and  _346
REMARK  139  A    between atoms: _348  and  _350
REMARK  140  A    between atoms: _350  and  _351
REMARK  141  A    between atoms: _350  and  _353
REMARK  142  A    between atoms: _353  and  _354
REMARK  143  A    between atoms: _364  and  _366
REMARK  144  A    between atoms: _366  and  _367
REMARK  145  A    between atoms: _366  and  _369
REMARK  146  A    between atoms: _369  and  _370
REMARK  147  A    between atoms: _370  and  _371
REMARK  148  A    between atoms: _371  and  _372
REMARK  149  A    between atoms: _381  and  _383
REMARK  150  A    between atoms: _383  and  _384
REMARK  151  A    between atoms: _383  and  _386
REMARK  152  A    between atoms: _386  and  _387
REMARK  153  A    between atoms: _387  and  _388
REMARK  154  A    between atoms: _388  and  _389
REMARK  155  A    between atoms: _389  and  _390
REMARK  156  A    between atoms: _394  and  _396
REMARK  157  A    between atoms: _396  and  _397
REMARK  158  A    between atoms: _396  and  _399
REMARK  159  A    between atoms: _399  and  _400
REMARK  160  A    between atoms: _400  and  _401
REMARK  161  A    between atoms: _406  and  _408
REMARK  162  A    between atoms: _408  and  _409
REMARK  163  A    between atoms: _408  and  _411
REMARK  164  A    between atoms: _411  and  _412
REMARK                            x       y       z     vdW  Elec       q    Type
REMARK                         _______ _______ _______ _____ _____    ______ ____
ROOT
ATOM      1  CG  TYR A   1      16.606  11.177  13.584  0.00  0.00    -0.020 A 
ATOM      2  CD2 TYR A   1      15.483  10.793  14.335  0.00  0.00    -0.001 A 
ATOM      3  CE2 TYR A   1      15.639  10.052  15.501  0.00  0.00    +0.036 A 
ATOM      4  CZ  TYR A   1      16.907   9.726  15.925  0.00  0.00    +0.134 A 
ATOM      5  CE1 TYR A   1      18.000  10.088  15.205  0.00  0.00    +0.036 A 
ATOM      6  CD1 TYR A   1      17.845  10.800  14.035  0.00  0.00    -0.001 A 
ENDROOT
BRANCH   4   7
ATOM      7  OH  TYR A   1      17.024   9.014  17.103  0.00  0.00    -0.506 OA
ATOM      8  HH  TYR A   1      16.123   8.847  17.477  0.00  0.00    +0.292 HD
ENDBRANCH   4   7
BRANCH   1   9
ATOM      9  CB  TYR A   1      16.485  12.040  12.311  0.00  0.00    +0.051 C 
BRANCH   9  10
ATOM     10  CA  TYR A   1      15.288  11.719  11.396  0.00  0.00    +0.137 C 
BRANCH  10  11
ATOM     11  N   TYR A   1      15.607  10.575  10.561  0.00  0.00    -0.239 NA
ATOM     12  H   TYR A   1      16.547  10.134  10.622  0.00  0.00    +0.142 HD
ENDBRANCH  10  11
BRANCH  10  13
ATOM     13  C   TYR A   1      14.881  12.933  10.560  0.00  0.00    +0.224 C 
ATOM     14  O   TYR A   1      13.954  13.582  10.879  0.00  0.00    -0.287 OA
ENDBRANCH  10  13
ENDBRANCH   9  10
ENDBRANCH   1   9
TORSDOF 5
REMARK  Name = ../refined-set-2016/3uj9/3uj9_pocket.pdb
REMARK  164 active torsions:
REMARK  status: ('A' for Active; 'I' for Inactive)
REMARK    1  A    between atoms: _1  and  _3
REMARK    2  A    between atoms: _3  and  _4
REMARK    3  A    between atoms: _3  and  _6
REMARK    4  A    between atoms: _6  and  _7
REMARK    5  A    between atoms: _7  and  _8
REMARK    6  A    between atoms: _13  and  _15
REMARK    7  A    between atoms: _15  and  _16
REMARK    8  A    between atoms: _15  and  _18
REMARK    9  A    between atoms: _18  and  _19
REMARK   10  A    between atoms: _24  and  _25
REMARK   11  A    between atoms: _27  and  _29
REMARK   12  A    between atoms: _29  and  _30
REMARK   13  A    between atoms: _32  and  _34
REMARK   14  A    between atoms: _34  and  _35
REMARK   15  A    between atoms: _34  and  _37
REMARK   16  A    between atoms: _37  and  _38
REMARK   17  A    between atoms: _43  and  _44
REMARK   18  A    between atoms: _46  and  _48
REMARK   19  A    between atoms: _48  and  _49
REMARK   20  A    between atoms: _48  and  _51
REMARK   21  A    between atoms: _51  and  _52
REMARK   22  A    between atoms: _55  and  _57
REMARK   23  A    between atoms: _57  and  _58
REMARK   24  A    between atoms: _57  and  _60
REMARK   25  A    between atoms: _60  and  _61
REMARK   26  A    between atoms: _67  and  _69
REMARK   27  A    between atoms: _69  and  _70
REMARK   28  A    between atoms: _69  and  _72
REMARK   29  A    between atoms: _72  and  _73
REMARK   30  A    between atoms: _78  and  _79
REMARK   31  A    between atoms: _81  and  _83
REMARK   32  A    between atoms: _83  and  _84
REMARK   33  A    between atoms: _83  and  _86
REMARK   34  A    between atoms: _86  and  _87
REMARK   35  A    between atoms: _90  and  _92
REMARK   36  A    between atoms: _92  and  _93
REMARK   37  A    between atoms: _92  and  _95
REMARK   38  A    between atoms: _95  and  _96
REMARK   39  A    between atoms: _98  and  _100
REMARK   40  A    between atoms: _100  and  _101
REMARK   41  A    between atoms: _100  and  _103
REMARK   42  A    between atoms: _103  and  _104
REMARK   43  A    between atoms: _106  and  _108
REMARK   44  A    between atoms: _108  and  _109
REMARK   45  A    between atoms: _111  and  _113
REMARK   46  A    between atoms: _113  and  _114
REMARK   47  A    between atoms: _116  and  _118
REMARK   48  A    between atoms: _118  and  _119
REMARK   49  A    between atoms: _121  and  _123
REMARK   50  A    between atoms: _123  and  _124
REMARK   51  A    between atoms: _126  and  _128
REMARK   52  A    between atoms: _128  and  _129
REMARK   53  A    between atoms: _128  and  _131
REMARK   54  A    between atoms: _131  and  _132
REMARK   55  A    between atoms: _135  and  _137
REMARK   56  A    between atoms: _137  and  _138
REMARK   57  A    between atoms: _137  and  _140
REMARK   58  A    between atoms: _140  and  _141
REMARK   59  A    between atoms: _144  and  _146
REMARK   60  A    between atoms: _146  and  _147
REMARK   61  A    between atoms: _146  and  _149
REMARK   62  A    between atoms: _149  and  _150
REMARK   63  A    between atoms: _150  and  _151
REMARK   64  A    between atoms: _151  and  _152
REMARK   65  A    between atoms: _161  and  _163
REMARK   66  A    between atoms: _163  and  _164
REMARK   67  A    between atoms: _163  and  _166
REMARK   68  A    between atoms: _166  and  _167
REMARK   69  A    between atoms: _170  and  _172
REMARK   70  A    between atoms: _172  and  _173
REMARK   71  A    between atoms: _176  and  _178
REMARK   72  A    between atoms: _178  and  _179
REMARK   73  A    between atoms: _178  and  _181
REMARK   74  A    between atoms: _181  and  _182
REMARK   75  A    between atoms: _185  and  _187
REMARK   76  A    between atoms: _187  and  _188
REMARK   77  A    between atoms: _187  and  _190
REMARK   78  A    between atoms: _190  and  _191
REMARK   79  A    between atoms: _194  and  _196
REMARK   80  A    between atoms: _196  and  _197
REMARK   81  A    between atoms: _196  and  _199
REMARK   82  A    between atoms: _199  and  _200
REMARK   83  A    between atoms: _205  and  _207
REMARK   84  A    between atoms: _207  and  _208
REMARK   85  A    between atoms: _207  and  _210
REMARK   86  A    between atoms: _210  and  _211
REMARK   87  A    between atoms: _214  and  _216
REMARK   88  A    between atoms: _216  and  _217
REMARK   89  A    between atoms: _216  and  _219
REMARK   90  A    between atoms: _219  and  _220
REMARK   91  A    between atoms: _223  and  _225
REMARK   92  A    between atoms: _225  and  _226
REMARK   93  A    between atoms: _225  and  _228
REMARK   94  A    between atoms: _228  and  _229
REMARK   95  A    between atoms: _234  and  _235
REMARK   96  A    between atoms: _237  and  _239
REMARK   97  A    between atoms: _239  and  _240
REMARK   98  A    between atoms: _239  and  _242
REMARK   99  A    between atoms: _242  and  _243
REMARK  100  A    between atoms: _248  and  _249
REMARK  101  A    between atoms: _251  and  _253
REMARK  102  A    between atoms: _253  and  _254
REMARK  103  A    between atoms: _253  and  _256
REMARK  104  A    between atoms: _256  and  _257
REMARK  105  A    between atoms: _257  and  _258
REMARK  106  A    between atoms: _258  and  _259
REMARK  107  A    between atoms: _268  and  _270
REMARK  108  A    between atoms: _270  and  _271
REMARK  109  A    between atoms: _270  and  _273
REMARK  110  A    between atoms: _273  and  _274
REMARK  111  A    between atoms: _279  and  _280
REMARK  112  A    between atoms: _282  and  _284
REMARK  113  A    between atoms: _284  and  _285
REMARK  114  A    between atoms: _284  and  _287
REMARK  115  A    between atoms: _287  and  _288
REMARK  116  A    between atoms: _291  and  _293
REMARK  117  A    between atoms: _293  and  _294
REMARK  118  A    between atoms: _293  and  _296
REMARK  119  A    between atoms: _296  and  _297
REMARK  120  A    between atoms: _307  and  _309
REMARK  121  A    between atoms: _309  and  _310
REMARK  122  A    between atoms: _309  and  _312
REMARK  123  A    between atoms: _312  and  _313
REMARK  124  A    between atoms: _316  and  _318
REMARK  125  A    between atoms: _318  and  _319
REMARK  126  A    between atoms: _318  and  _321
REMARK  127  A    between atoms: _321  and  _322
REMARK  128  A    between atoms: _322  and  _323
REMARK  129  A    between atoms: _326  and  _328
REMARK  130  A    between atoms: _328  and  _329
REMARK  131  A    between atoms: _328  and  _331
REMARK  132  A    between atoms: _331  and  _332
REMARK  133  A    between atoms: _334  and  _336
REMARK  134  A    between atoms: _336  and  _337
REMARK  135  A    between atoms: _336  and  _339
REMARK  136  A    between atoms: _339  and  _340
REMARK  137  A    between atoms: _343  and  _345
REMARK  138  A    between atoms: _345  and  _346
REMARK  139  A    between atoms: _348  and  _350
REMARK  140  A    between atoms: _350  and  _351
REMARK  141  A    between atoms: _350  and  _353
REMARK  142  A    between atoms: _353  and  _354
REMARK  143  A    between atoms: _364  and  _366
REMARK  144  A    between atoms: _366  and  _367
REMARK  145  A    between atoms: _366  and  _369
REMARK  146  A    between atoms: _369  and  _370
REMARK  147  A    between atoms: _370  and  _371
REMARK  148  A    between atoms: _371  and  _372
REMARK  149  A    between atoms: _381  and  _383
REMARK  150  A    between atoms: _383  and  _384
REMARK  151  A    between atoms: _383  and  _386
REMARK  152  A    between atoms: _386  and  _387
REMARK  153  A    between atoms: _387  and  _388
REMARK  154  A    between atoms: _388  and  _389
REMARK  155  A    between atoms: _389  and  _390
REMARK  156  A    between atoms: _394  and  _396
REMARK  157  A    between atoms: _396  and  _397
REMARK  158  A    between atoms: _396  and  _399
REMARK  159  A    between atoms: _399  and  _400
REMARK  160  A    between atoms: _400  and  _401
REMARK  161  A    between atoms: _406  and  _408
REMARK  162  A    between atoms: _408  and  _409
REMARK  163  A    between atoms: _408  and  _411
REMARK  164  A    between atoms: _411  and  _412
REMARK                            x       y       z     vdW  Elec       q    Type
REMARK                         _______ _______ _______ _____ _____    ______ ____
ROOT
ATOM      1  C   ILE A   1      10.344  14.798  10.894  0.00  0.00    +0.238 C 
ATOM      2  N   PHE A   2      11.564  15.235  11.099  0.00  0.00    -0.298 N 
ATOM      3  H   PHE A   2      12.381  14.640  10.855  0.00  0.00    +0.150 HD
ATOM      4  O   ILE A   1       9.400  15.458  11.068  0.00  0.00    -0.274 OA
ENDROOT
BRANCH   1   5
ATOM      5  CA  ILE A   1      10.181  13.396  10.286  0.00  0.00    +0.145 C 
BRANCH   5   6
ATOM      6  N   ILE A   1      11.228  13.039   9.352  0.00  0.00    -0.238 NA
ATOM      7  H   ILE A   1      12.084  12.560   9.697  0.00  0.00    +0.142 HD
ENDBRANCH   5   6
BRANCH   5   8
ATOM      8  CB  ILE A   1      10.037  12.279  11.396  0.00  0.00    +0.025 C 
ATOM      9  CG2 ILE A   1      11.321  12.118  12.204  0.00  0.00    +0.002 C 
BRANCH   8  10
ATOM     10  CG1 ILE A   1       8.775  12.553  12.218  0.00  0.00    +0.002 C 
ATOM     11  CD1 ILE A   1       8.371  11.378  13.060  0.00  0.00    +0.000 C 
ENDBRANCH   8  10
ENDBRANCH   5   8
ENDBRANCH   1   5
BRANCH   2  12
ATOM     12  CA  PHE A   2      11.769  16.577  11.679  0.00  0.00    +0.141 C 
BRANCH  12  13
ATOM     13  C   PHE A   2      11.632  17.667  10.627  0.00  0.00    +0.227 C 
ATOM     14  O   PHE A   2      11.202  18.732  10.937  0.00  0.00    -0.286 OA
ENDBRANCH  12  13
BRANCH  12  15
ATOM     15  CB  PHE A   2      13.138  16.695  12.337  0.00  0.00    +0.054 C 
BRANCH  15  16
ATOM     16  CG  PHE A   2      13.294  15.914  13.656  0.00  0.00    -0.020 A 
ATOM     17  CD2 PHE A   2      12.490  16.182  14.740  0.00  0.00    -0.004 A 
ATOM     18  CE2 PHE A   2      12.660  15.496  15.933  0.00  0.00    -0.000 A 
ATOM     19  CZ  PHE A   2      13.652  14.573  16.050  0.00  0.00    -0.000 A 
ATOM     20  CE1 PHE A   2      14.476  14.304  14.996  0.00  0.00    -0.000 A 
ATOM     21  CD1 PHE A   2      14.272  15.001  13.787  0.00  0.00    -0.004 A 
ENDBRANCH  15  16
ENDBRANCH  12  15
ENDBRANCH   2  12
TORSDOF 8
REMARK  Name = ../refined-set-2016/3uj9/3uj9_pocket.pdb
REMARK  164 active torsions:
REMARK  status: ('A' for Active; 'I' for Inactive)
REMARK    1  A    between atoms: _1  and  _3
REMARK    2  A    between atoms: _3  and  _4
REMARK    3  A    between atoms: _3  and  _6
REMARK    4  A    between atoms: _6  and  _7
REMARK    5  A    between atoms: _7  and  _8
REMARK    6  A    between atoms: _13  and  _15
REMARK    7  A    between atoms: _15  and  _16
REMARK    8  A    between atoms: _15  and  _18
REMARK    9  A    between atoms: _18  and  _19
REMARK   10  A    between atoms: _24  and  _25
REMARK   11  A    between atoms: _27  and  _29
REMARK   12  A    between atoms: _29  and  _30
REMARK   13  A    between atoms: _32  and  _34
REMARK   14  A    between atoms: _34  and  _35
REMARK   15  A    between atoms: _34  and  _37
REMARK   16  A    between atoms: _37  and  _38
REMARK   17  A    between atoms: _43  and  _44
REMARK   18  A    between atoms: _46  and  _48
REMARK   19  A    between atoms: _48  and  _49
REMARK   20  A    between atoms: _48  and  _51
REMARK   21  A    between atoms: _51  and  _52
REMARK   22  A    between atoms: _55  and  _57
REMARK   23  A    between atoms: _57  and  _58
REMARK   24  A    between atoms: _57  and  _60
REMARK   25  A    between atoms: _60  and  _61
REMARK   26  A    between atoms: _67  and  _69
REMARK   27  A    between atoms: _69  and  _70
REMARK   28  A    between atoms: _69  and  _72
REMARK   29  A    between atoms: _72  and  _73
REMARK   30  A    between atoms: _78  and  _79
REMARK   31  A    between atoms: _81  and  _83
REMARK   32  A    between atoms: _83  and  _84
REMARK   33  A    between atoms: _83  and  _86
REMARK   34  A    between atoms: _86  and  _87
REMARK   35  A    between atoms: _90  and  _92
REMARK   36  A    between atoms: _92  and  _93
REMARK   37  A    between atoms: _92  and  _95
REMARK   38  A    between atoms: _95  and  _96
REMARK   39  A    between atoms: _98  and  _100
REMARK   40  A    between atoms: _100  and  _101
REMARK   41  A    between atoms: _100  and  _103
REMARK   42  A    between atoms: _103  and  _104
REMARK   43  A    between atoms: _106  and  _108
REMARK   44  A    between atoms: _108  and  _109
REMARK   45  A    between atoms: _111  and  _113
REMARK   46  A    between atoms: _113  and  _114
REMARK   47  A    between atoms: _116  and  _118
REMARK   48  A    between atoms: _118  and  _119
REMARK   49  A    between atoms: _121  and  _123
REMARK   50  A    between atoms: _123  and  _124
REMARK   51  A    between atoms: _126  and  _128
REMARK   52  A    between atoms: _128  and  _129
REMARK   53  A    between atoms: _128  and  _131
REMARK   54  A    between atoms: _131  and  _132
REMARK   55  A    between atoms: _135  and  _137
REMARK   56  A    between atoms: _137  and  _138
REMARK   57  A    between atoms: _137  and  _140
REMARK   58  A    between atoms: _140  and  _141
REMARK   59  A    between atoms: _144  and  _146
REMARK   60  A    between atoms: _146  and  _147
REMARK   61  A    between atoms: _146  and  _149
REMARK   62  A    between atoms: _149  and  _150
REMARK   63  A    between atoms: _150  and  _151
REMARK   64  A    between atoms: _151  and  _152
REMARK   65  A    between atoms: _161  and  _163
REMARK   66  A    between atoms: _163  and  _164
REMARK   67  A    between atoms: _163  and  _166
REMARK   68  A    between atoms: _166  and  _167
REMARK   69  A    between atoms: _170  and  _172
REMARK   70  A    between atoms: _172  and  _173
REMARK   71  A    between atoms: _176  and  _178
REMARK   72  A    between atoms: _178  and  _179
REMARK   73  A    between atoms: _178  and  _181
REMARK   74  A    between atoms: _181  and  _182
REMARK   75  A    between atoms: _185  and  _187
REMARK   76  A    between atoms: _187  and  _188
REMARK   77  A    between atoms: _187  and  _190
REMARK   78  A    between atoms: _190  and  _191
REMARK   79  A    between atoms: _194  and  _196
REMARK   80  A    between atoms: _196  and  _197
REMARK   81  A    between atoms: _196  and  _199
REMARK   82  A    between atoms: _199  and  _200
REMARK   83  A    between atoms: _205  and  _207
REMARK   84  A    between atoms: _207  and  _208
REMARK   85  A    between atoms: _207  and  _210
REMARK   86  A    between atoms: _210  and  _211
REMARK   87  A    between atoms: _214  and  _216
REMARK   88  A    between atoms: _216  and  _217
REMARK   89  A    between atoms: _216  and  _219
REMARK   90  A    between atoms: _219  and  _220
REMARK   91  A    between atoms: _223  and  _225
REMARK   92  A    between atoms: _225  and  _226
REMARK   93  A    between atoms: _225  and  _228
REMARK   94  A    between atoms: _228  and  _229
REMARK   95  A    between atoms: _234  and  _235
REMARK   96  A    between atoms: _237  and  _239
REMARK   97  A    between atoms: _239  and  _240
REMARK   98  A    between atoms: _239  and  _242
REMARK   99  A    between atoms: _242  and  _243
REMARK  100  A    between atoms: _248  and  _249
REMARK  101  A    between atoms: _251  and  _253
REMARK  102  A    between atoms: _253  and  _254
REMARK  103  A    between atoms: _253  and  _256
REMARK  104  A    between atoms: _256  and  _257
REMARK  105  A    between atoms: _257  and  _258
REMARK  106  A    between atoms: _258  and  _259
REMARK  107  A    between atoms: _268  and  _270
REMARK  108  A    between atoms: _270  and  _271
REMARK  109  A    between atoms: _270  and  _273
REMARK  110  A    between atoms: _273  and  _274
REMARK  111  A    between atoms: _279  and  _280
REMARK  112  A    between atoms: _282  and  _284
REMARK  113  A    between atoms: _284  and  _285
REMARK  114  A    between atoms: _284  and  _287
REMARK  115  A    between atoms: _287  and  _288
REMARK  116  A    between atoms: _291  and  _293
REMARK  117  A    between atoms: _293  and  _294
REMARK  118  A    between atoms: _293  and  _296
REMARK  119  A    between atoms: _296  and  _297
REMARK  120  A    between atoms: _307  and  _309
REMARK  121  A    between atoms: _309  and  _310
REMARK  122  A    between atoms: _309  and  _312
REMARK  123  A    between atoms: _312  and  _313
REMARK  124  A    between atoms: _316  and  _318
REMARK  125  A    between atoms: _318  and  _319
REMARK  126  A    between atoms: _318  and  _321
REMARK  127  A    between atoms: _321  and  _322
REMARK  128  A    between atoms: _322  and  _323
REMARK  129  A    between atoms: _326  and  _328
REMARK  130  A    between atoms: _328  and  _329
REMARK  131  A    between atoms: _328  and  _331
REMARK  132  A    between atoms: _331  and  _332
REMARK  133  A    between atoms: _334  and  _336
REMARK  134  A    between atoms: _336  and  _337
REMARK  135  A    between atoms: _336  and  _339
REMARK  136  A    between atoms: _339  and  _340
REMARK  137  A    between atoms: _343  and  _345
REMARK  138  A    between atoms: _345  and  _346
REMARK  139  A    between atoms: _348  and  _350
REMARK  140  A    between atoms: _350  and  _351
REMARK  141  A    between atoms: _350  and  _353
REMARK  142  A    between atoms: _353  and  _354
REMARK  143  A    between atoms: _364  and  _366
REMARK  144  A    between atoms: _366  and  _367
REMARK  145  A    between atoms: _366  and  _369
REMARK  146  A    between atoms: _369  and  _370
REMARK  147  A    between atoms: _370  and  _371
REMARK  148  A    between atoms: _371  and  _372
REMARK  149  A    between atoms: _381  and  _383
REMARK  150  A    between atoms: _383  and  _384
REMARK  151  A    between atoms: _383  and  _386
REMARK  152  A    between atoms: _386  and  _387
REMARK  153  A    between atoms: _387  and  _388
REMARK  154  A    between atoms: _388  and  _389
REMARK  155  A    between atoms: _389  and  _390
REMARK  156  A    between atoms: _394  and  _396
REMARK  157  A    between atoms: _396  and  _397
REMARK  158  A    between atoms: _396  and  _399
REMARK  159  A    between atoms: _399  and  _400
REMARK  160  A    between atoms: _400  and  _401
REMARK  161  A    between atoms: _406  and  _408
REMARK  162  A    between atoms: _408  and  _409
REMARK  163  A    between atoms: _408  and  _411
REMARK  164  A    between atoms: _411  and  _412
REMARK                            x       y       z     vdW  Elec       q    Type
REMARK                         _______ _______ _______ _____ _____    ______ ____
ROOT
ATOM      1  C   ILE A   2      17.089  16.923  14.680  0.00  0.00    +0.241 C 
ATOM      2  O   ILE A   2      17.151  16.112  15.556  0.00  0.00    -0.273 OA
ATOM      3  N   SER A   3      16.661  18.162  14.839  0.00  0.00    -0.295 N 
ATOM      4  H   SER A   3      16.597  18.778  14.003  0.00  0.00    +0.150 HD
ENDROOT
BRANCH   3   5
ATOM      5  CA  SER A   3      16.269  18.711  16.155  0.00  0.00    +0.178 C 
BRANCH   5   6
ATOM      6  C   SER A   3      14.744  18.810  16.218  0.00  0.00    +0.243 C 
ATOM      7  N   SER A   4      14.236  18.752  17.438  0.00  0.00    -0.295 N 
ATOM      8  H   SER A   4      14.894  18.697  18.242  0.00  0.00    +0.150 HD
ATOM      9  O   SER A   3      14.057  18.966  15.217  0.00  0.00    -0.273 OA
BRANCH   7  10
ATOM     10  CA  SER A   4      12.791  18.761  17.722  0.00  0.00    +0.178 C 
BRANCH  10  11
ATOM     11  C   SER A   4      12.085  19.933  17.048  0.00  0.00    +0.243 C 
ATOM     12  O   SER A   4      12.518  21.045  17.113  0.00  0.00    -0.273 OA
ATOM     13  N   GLY A   5      10.978  19.626  16.376  0.00  0.00    -0.295 N 
ATOM     14  H   GLY A   5      10.701  18.630  16.266  0.00  0.00    +0.150 HD
BRANCH  13  15
ATOM     15  CA  GLY A   5      10.155  20.670  15.795  0.00  0.00    +0.176 C 
BRANCH  15  16
ATOM     16  C   GLY A   5      10.684  21.313  14.508  0.00  0.00    +0.243 C 
ATOM     17  N   GLY A   6      11.847  20.876  14.033  0.00  0.00    -0.296 N 
ATOM     18  H   GLY A   6      12.363  20.148  14.568  0.00  0.00    +0.150 HD
ATOM     19  O   GLY A   5      10.040  22.151  14.004  0.00  0.00    -0.273 OA
BRANCH  17  20
ATOM     20  CA  GLY A   6      12.433  21.380  12.782  0.00  0.00    +0.163 C 
BRANCH  20  21
ATOM     21  C   GLY A   6      12.334  22.892  12.658  0.00  0.00    +0.229 C 
ATOM     22  O   GLY A   6      12.662  23.620  13.553  0.00  0.00    -0.286 OA
ENDBRANCH  20  21
ENDBRANCH  17  20
ENDBRANCH  15  16
ENDBRANCH  13  15
ENDBRANCH  10  11
BRANCH  10  23
ATOM     23  CB  SER A   4      12.504  18.855  19.243  0.00  0.00    +0.166 C 
BRANCH  23  24
ATOM     24  OG  SER A   4      13.172  17.880  20.001  0.00  0.00    -0.380 OA
ATOM     25  H   SER A   4      14.149  17.979  19.877  0.00  0.00    +0.211 HD
ENDBRANCH  23  24
ENDBRANCH  10  23
ENDBRANCH   7  10
ENDBRANCH   5   6
BRANCH   5  26
ATOM     26  CB  SER A   3      16.917  20.078  16.348  0.00  0.00    +0.166 C 
BRANCH  26  27
ATOM     27  OG  SER A   3      16.705  20.980  15.245  0.00  0.00    -0.380 OA
ATOM     28  H   SER A   3      17.150  21.843  15.436  0.00  0.00    +0.211 HD
ENDBRANCH  26  27
ENDBRANCH   5  26
ENDBRANCH   3   5
BRANCH   1  29
ATOM     29  CA  ILE A   2      17.462  16.508  13.250  0.00  0.00    +0.148 C 
BRANCH  29  31
ATOM     30  C   TYR A   1      16.894  17.819  11.259  0.00  0.00    +0.239 C 
ATOM     31  N   ILE A   2      17.592  17.674  12.372  0.00  0.00    -0.297 N 
ATOM     32  H   ILE A   2      18.264  18.422  12.637  0.00  0.00    +0.150 HD
ATOM     33  O   TYR A   1      16.280  16.954  10.762  0.00  0.00    -0.274 OA
BRANCH  30  34
ATOM     34  CA  TYR A   1      16.838  19.216  10.685  0.00  0.00    +0.149 C 
BRANCH  34  35
ATOM     35  N   TYR A   1      16.948  19.294   9.215  0.00  0.00    -0.238 NA
ATOM     36  H   TYR A   1      16.322  18.723   8.612  0.00  0.00    +0.142 HD
ENDBRANCH  34  35
BRANCH  34  37
ATOM     37  CB  TYR A   1      15.534  19.889  11.156  0.00  0.00    +0.053 C 
BRANCH  37  38
ATOM     38  CG  TYR A   1      15.543  21.392  11.052  0.00  0.00    -0.020 A 
ATOM     39  CD2 TYR A   1      16.096  22.170  12.059  0.00  0.00    -0.001 A 
ATOM     40  CE2 TYR A   1      16.109  23.540  11.959  0.00  0.00    +0.036 A 
ATOM     41  CZ  TYR A   1      15.572  24.134  10.869  0.00  0.00    +0.134 A 
ATOM     42  CE1 TYR A   1      15.033  23.389   9.855  0.00  0.00    +0.036 A 
ATOM     43  CD1 TYR A   1      15.024  22.026   9.940  0.00  0.00    -0.001 A 
BRANCH  41  44
ATOM     44  OH  TYR A   1      15.584  25.506  10.785  0.00  0.00    -0.506 OA
ATOM     45  HH  TYR A   1      16.099  25.782   9.986  0.00  0.00    +0.292 HD
ENDBRANCH  41  44
ENDBRANCH  37  38
ENDBRANCH  34  37
ENDBRANCH  30  34
ENDBRANCH  29  31
BRANCH  29  46
ATOM     46  CB  ILE A   2      18.714  15.586  13.224  0.00  0.00    +0.027 C 
ATOM     47  CG2 ILE A   2      18.924  15.013  11.795  0.00  0.00    +0.002 C 
BRANCH  46  48
ATOM     48  CG1 ILE A   2      19.935  16.330  13.715  0.00  0.00    +0.002 C 
ATOM     49  CD1 ILE A   2      21.182  15.439  13.928  0.00  0.00    +0.000 C 
ENDBRANCH  46  48
ENDBRANCH  29  46
ENDBRANCH   1  29
TORSDOF 21
REMARK  Name = ../refined-set-2016/3uj9/3uj9_pocket.pdb
REMARK  164 active torsions:
REMARK  status: ('A' for Active; 'I' for Inactive)
REMARK    1  A    between atoms: _1  and  _3
REMARK    2  A    between atoms: _3  and  _4
REMARK    3  A    between atoms: _3  and  _6
REMARK    4  A    between atoms: _6  and  _7
REMARK    5  A    between atoms: _7  and  _8
REMARK    6  A    between atoms: _13  and  _15
REMARK    7  A    between atoms: _15  and  _16
REMARK    8  A    between atoms: _15  and  _18
REMARK    9  A    between atoms: _18  and  _19
REMARK   10  A    between atoms: _24  and  _25
REMARK   11  A    between atoms: _27  and  _29
REMARK   12  A    between atoms: _29  and  _30
REMARK   13  A    between atoms: _32  and  _34
REMARK   14  A    between atoms: _34  and  _35
REMARK   15  A    between atoms: _34  and  _37
REMARK   16  A    between atoms: _37  and  _38
REMARK   17  A    between atoms: _43  and  _44
REMARK   18  A    between atoms: _46  and  _48
REMARK   19  A    between atoms: _48  and  _49
REMARK   20  A    between atoms: _48  and  _51
REMARK   21  A    between atoms: _51  and  _52
REMARK   22  A    between atoms: _55  and  _57
REMARK   23  A    between atoms: _57  and  _58
REMARK   24  A    between atoms: _57  and  _60
REMARK   25  A    between atoms: _60  and  _61
REMARK   26  A    between atoms: _67  and  _69
REMARK   27  A    between atoms: _69  and  _70
REMARK   28  A    between atoms: _69  and  _72
REMARK   29  A    between atoms: _72  and  _73
REMARK   30  A    between atoms: _78  and  _79
REMARK   31  A    between atoms: _81  and  _83
REMARK   32  A    between atoms: _83  and  _84
REMARK   33  A    between atoms: _83  and  _86
REMARK   34  A    between atoms: _86  and  _87
REMARK   35  A    between atoms: _90  and  _92
REMARK   36  A    between atoms: _92  and  _93
REMARK   37  A    between atoms: _92  and  _95
REMARK   38  A    between atoms: _95  and  _96
REMARK   39  A    between atoms: _98  and  _100
REMARK   40  A    between atoms: _100  and  _101
REMARK   41  A    between atoms: _100  and  _103
REMARK   42  A    between atoms: _103  and  _104
REMARK   43  A    between atoms: _106  and  _108
REMARK   44  A    between atoms: _108  and  _109
REMARK   45  A    between atoms: _111  and  _113
REMARK   46  A    between atoms: _113  and  _114
REMARK   47  A    between atoms: _116  and  _118
REMARK   48  A    between atoms: _118  and  _119
REMARK   49  A    between atoms: _121  and  _123
REMARK   50  A    between atoms: _123  and  _124
REMARK   51  A    between atoms: _126  and  _128
REMARK   52  A    between atoms: _128  and  _129
REMARK   53  A    between atoms: _128  and  _131
REMARK   54  A    between atoms: _131  and  _132
REMARK   55  A    between atoms: _135  and  _137
REMARK   56  A    between atoms: _137  and  _138
REMARK   57  A    between atoms: _137  and  _140
REMARK   58  A    between atoms: _140  and  _141
REMARK   59  A    between atoms: _144  and  _146
REMARK   60  A    between atoms: _146  and  _147
REMARK   61  A    between atoms: _146  and  _149
REMARK   62  A    between atoms: _149  and  _150
REMARK   63  A    between atoms: _150  and  _151
REMARK   64  A    between atoms: _151  and  _152
REMARK   65  A    between atoms: _161  and  _163
REMARK   66  A    between atoms: _163  and  _164
REMARK   67  A    between atoms: _163  and  _166
REMARK   68  A    between atoms: _166  and  _167
REMARK   69  A    between atoms: _170  and  _172
REMARK   70  A    between atoms: _172  and  _173
REMARK   71  A    between atoms: _176  and  _178
REMARK   72  A    between atoms: _178  and  _179
REMARK   73  A    between atoms: _178  and  _181
REMARK   74  A    between atoms: _181  and  _182
REMARK   75  A    between atoms: _185  and  _187
REMARK   76  A    between atoms: _187  and  _188
REMARK   77  A    between atoms: _187  and  _190
REMARK   78  A    between atoms: _190  and  _191
REMARK   79  A    between atoms: _194  and  _196
REMARK   80  A    between atoms: _196  and  _197
REMARK   81  A    between atoms: _196  and  _199
REMARK   82  A    between atoms: _199  and  _200
REMARK   83  A    between atoms: _205  and  _207
REMARK   84  A    between atoms: _207  and  _208
REMARK   85  A    between atoms: _207  and  _210
REMARK   86  A    between atoms: _210  and  _211
REMARK   87  A    between atoms: _214  and  _216
REMARK   88  A    between atoms: _216  and  _217
REMARK   89  A    between atoms: _216  and  _219
REMARK   90  A    between atoms: _219  and  _220
REMARK   91  A    between atoms: _223  and  _225
REMARK   92  A    between atoms: _225  and  _226
REMARK   93  A    between atoms: _225  and  _228
REMARK   94  A    between atoms: _228  and  _229
REMARK   95  A    between atoms: _234  and  _235
REMARK   96  A    between atoms: _237  and  _239
REMARK   97  A    between atoms: _239  and  _240
REMARK   98  A    between atoms: _239  and  _242
REMARK   99  A    between atoms: _242  and  _243
REMARK  100  A    between atoms: _248  and  _249
REMARK  101  A    between atoms: _251  and  _253
REMARK  102  A    between atoms: _253  and  _254
REMARK  103  A    between atoms: _253  and  _256
REMARK  104  A    between atoms: _256  and  _257
REMARK  105  A    between atoms: _257  and  _258
REMARK  106  A    between atoms: _258  and  _259
REMARK  107  A    between atoms: _268  and  _270
REMARK  108  A    between atoms: _270  and  _271
REMARK  109  A    between atoms: _270  and  _273
REMARK  110  A    between atoms: _273  and  _274
REMARK  111  A    between atoms: _279  and  _280
REMARK  112  A    between atoms: _282  and  _284
REMARK  113  A    between atoms: _284  and  _285
REMARK  114  A    between atoms: _284  and  _287
REMARK  115  A    between atoms: _287  and  _288
REMARK  116  A    between atoms: _291  and  _293
REMARK  117  A    between atoms: _293  and  _294
REMARK  118  A    between atoms: _293  and  _296
REMARK  119  A    between atoms: _296  and  _297
REMARK  120  A    between atoms: _307  and  _309
REMARK  121  A    between atoms: _309  and  _310
REMARK  122  A    between atoms: _309  and  _312
REMARK  123  A    between atoms: _312  and  _313
REMARK  124  A    between atoms: _316  and  _318
REMARK  125  A    between atoms: _318  and  _319
REMARK  126  A    between atoms: _318  and  _321
REMARK  127  A    between atoms: _321  and  _322
REMARK  128  A    between atoms: _322  and  _323
REMARK  129  A    between atoms: _326  and  _328
REMARK  130  A    between atoms: _328  and  _329
REMARK  131  A    between atoms: _328  and  _331
REMARK  132  A    between atoms: _331  and  _332
REMARK  133  A    between atoms: _334  and  _336
REMARK  134  A    between atoms: _336  and  _337
REMARK  135  A    between atoms: _336  and  _339
REMARK  136  A    between atoms: _339  and  _340
REMARK  137  A    between atoms: _343  and  _345
REMARK  138  A    between atoms: _345  and  _346
REMARK  139  A    between atoms: _348  and  _350
REMARK  140  A    between atoms: _350  and  _351
REMARK  141  A    between atoms: _350  and  _353
REMARK  142  A    between atoms: _353  and  _354
REMARK  143  A    between atoms: _364  and  _366
REMARK  144  A    between atoms: _366  and  _367
REMARK  145  A    between atoms: _366  and  _369
REMARK  146  A    between atoms: _369  and  _370
REMARK  147  A    between atoms: _370  and  _371
REMARK  148  A    between atoms: _371  and  _372
REMARK  149  A    between atoms: _381  and  _383
REMARK  150  A    between atoms: _383  and  _384
REMARK  151  A    between atoms: _383  and  _386
REMARK  152  A    between atoms: _386  and  _387
REMARK  153  A    between atoms: _387  and  _388
REMARK  154  A    between atoms: _388  and  _389
REMARK  155  A    between atoms: _389  and  _390
REMARK  156  A    between atoms: _394  and  _396
REMARK  157  A    between atoms: _396  and  _397
REMARK  158  A    between atoms: _396  and  _399
REMARK  159  A    between atoms: _399  and  _400
REMARK  160  A    between atoms: _400  and  _401
REMARK  161  A    between atoms: _406  and  _408
REMARK  162  A    between atoms: _408  and  _409
REMARK  163  A    between atoms: _408  and  _411
REMARK  164  A    between atoms: _411  and  _412
REMARK                            x       y       z     vdW  Elec       q    Type
REMARK                         _______ _______ _______ _____ _____    ______ ____
ROOT
ATOM      1  CA  GLY A   1      25.543  20.192  17.683  0.00  0.00    +0.156 C 
ENDROOT
BRANCH   1   2
ATOM      2  N   GLY A   1      26.323  21.314  18.161  0.00  0.00    -0.238 NA
ATOM      3  H   GLY A   1      27.308  21.405  17.840  0.00  0.00    +0.142 HD
ENDBRANCH   1   2
BRANCH   1   4
ATOM      4  C   GLY A   1      24.701  20.586  16.486  0.00  0.00    +0.226 C 
ATOM      5  O   GLY A   1      23.501  20.413  16.454  0.00  0.00    -0.287 OA
ENDBRANCH   1   4
TORSDOF 2
REMARK  Name = ../refined-set-2016/3uj9/3uj9_pocket.pdb
REMARK  164 active torsions:
REMARK  status: ('A' for Active; 'I' for Inactive)
REMARK    1  A    between atoms: _1  and  _3
REMARK    2  A    between atoms: _3  and  _4
REMARK    3  A    between atoms: _3  and  _6
REMARK    4  A    between atoms: _6  and  _7
REMARK    5  A    between atoms: _7  and  _8
REMARK    6  A    between atoms: _13  and  _15
REMARK    7  A    between atoms: _15  and  _16
REMARK    8  A    between atoms: _15  and  _18
REMARK    9  A    between atoms: _18  and  _19
REMARK   10  A    between atoms: _24  and  _25
REMARK   11  A    between atoms: _27  and  _29
REMARK   12  A    between atoms: _29  and  _30
REMARK   13  A    between atoms: _32  and  _34
REMARK   14  A    between atoms: _34  and  _35
REMARK   15  A    between atoms: _34  and  _37
REMARK   16  A    between atoms: _37  and  _38
REMARK   17  A    between atoms: _43  and  _44
REMARK   18  A    between atoms: _46  and  _48
REMARK   19  A    between atoms: _48  and  _49
REMARK   20  A    between atoms: _48  and  _51
REMARK   21  A    between atoms: _51  and  _52
REMARK   22  A    between atoms: _55  and  _57
REMARK   23  A    between atoms: _57  and  _58
REMARK   24  A    between atoms: _57  and  _60
REMARK   25  A    between atoms: _60  and  _61
REMARK   26  A    between atoms: _67  and  _69
REMARK   27  A    between atoms: _69  and  _70
REMARK   28  A    between atoms: _69  and  _72
REMARK   29  A    between atoms: _72  and  _73
REMARK   30  A    between atoms: _78  and  _79
REMARK   31  A    between atoms: _81  and  _83
REMARK   32  A    between atoms: _83  and  _84
REMARK   33  A    between atoms: _83  and  _86
REMARK   34  A    between atoms: _86  and  _87
REMARK   35  A    between atoms: _90  and  _92
REMARK   36  A    between atoms: _92  and  _93
REMARK   37  A    between atoms: _92  and  _95
REMARK   38  A    between atoms: _95  and  _96
REMARK   39  A    between atoms: _98  and  _100
REMARK   40  A    between atoms: _100  and  _101
REMARK   41  A    between atoms: _100  and  _103
REMARK   42  A    between atoms: _103  and  _104
REMARK   43  A    between atoms: _106  and  _108
REMARK   44  A    between atoms: _108  and  _109
REMARK   45  A    between atoms: _111  and  _113
REMARK   46  A    between atoms: _113  and  _114
REMARK   47  A    between atoms: _116  and  _118
REMARK   48  A    between atoms: _118  and  _119
REMARK   49  A    between atoms: _121  and  _123
REMARK   50  A    between atoms: _123  and  _124
REMARK   51  A    between atoms: _126  and  _128
REMARK   52  A    between atoms: _128  and  _129
REMARK   53  A    between atoms: _128  and  _131
REMARK   54  A    between atoms: _131  and  _132
REMARK   55  A    between atoms: _135  and  _137
REMARK   56  A    between atoms: _137  and  _138
REMARK   57  A    between atoms: _137  and  _140
REMARK   58  A    between atoms: _140  and  _141
REMARK   59  A    between atoms: _144  and  _146
REMARK   60  A    between atoms: _146  and  _147
REMARK   61  A    between atoms: _146  and  _149
REMARK   62  A    between atoms: _149  and  _150
REMARK   63  A    between atoms: _150  and  _151
REMARK   64  A    between atoms: _151  and  _152
REMARK   65  A    between atoms: _161  and  _163
REMARK   66  A    between atoms: _163  and  _164
REMARK   67  A    between atoms: _163  and  _166
REMARK   68  A    between atoms: _166  and  _167
REMARK   69  A    between atoms: _170  and  _172
REMARK   70  A    between atoms: _172  and  _173
REMARK   71  A    between atoms: _176  and  _178
REMARK   72  A    between atoms: _178  and  _179
REMARK   73  A    between atoms: _178  and  _181
REMARK   74  A    between atoms: _181  and  _182
REMARK   75  A    between atoms: _185  and  _187
REMARK   76  A    between atoms: _187  and  _188
REMARK   77  A    between atoms: _187  and  _190
REMARK   78  A    between atoms: _190  and  _191
REMARK   79  A    between atoms: _194  and  _196
REMARK   80  A    between atoms: _196  and  _197
REMARK   81  A    between atoms: _196  and  _199
REMARK   82  A    between atoms: _199  and  _200
REMARK   83  A    between atoms: _205  and  _207
REMARK   84  A    between atoms: _207  and  _208
REMARK   85  A    between atoms: _207  and  _210
REMARK   86  A    between atoms: _210  and  _211
REMARK   87  A    between atoms: _214  and  _216
REMARK   88  A    between atoms: _216  and  _217
REMARK   89  A    between atoms: _216  and  _219
REMARK   90  A    between atoms: _219  and  _220
REMARK   91  A    between atoms: _223  and  _225
REMARK   92  A    between atoms: _225  and  _226
REMARK   93  A    between atoms: _225  and  _228
REMARK   94  A    between atoms: _228  and  _229
REMARK   95  A    between atoms: _234  and  _235
REMARK   96  A    between atoms: _237  and  _239
REMARK   97  A    between atoms: _239  and  _240
REMARK   98  A    between atoms: _239  and  _242
REMARK   99  A    between atoms: _242  and  _243
REMARK  100  A    between atoms: _248  and  _249
REMARK  101  A    between atoms: _251  and  _253
REMARK  102  A    between atoms: _253  and  _254
REMARK  103  A    between atoms: _253  and  _256
REMARK  104  A    between atoms: _256  and  _257
REMARK  105  A    between atoms: _257  and  _258
REMARK  106  A    between atoms: _258  and  _259
REMARK  107  A    between atoms: _268  and  _270
REMARK  108  A    between atoms: _270  and  _271
REMARK  109  A    between atoms: _270  and  _273
REMARK  110  A    between atoms: _273  and  _274
REMARK  111  A    between atoms: _279  and  _280
REMARK  112  A    between atoms: _282  and  _284
REMARK  113  A    between atoms: _284  and  _285
REMARK  114  A    between atoms: _284  and  _287
REMARK  115  A    between atoms: _287  and  _288
REMARK  116  A    between atoms: _291  and  _293
REMARK  117  A    between atoms: _293  and  _294
REMARK  118  A    between atoms: _293  and  _296
REMARK  119  A    between atoms: _296  and  _297
REMARK  120  A    between atoms: _307  and  _309
REMARK  121  A    between atoms: _309  and  _310
REMARK  122  A    between atoms: _309  and  _312
REMARK  123  A    between atoms: _312  and  _313
REMARK  124  A    between atoms: _316  and  _318
REMARK  125  A    between atoms: _318  and  _319
REMARK  126  A    between atoms: _318  and  _321
REMARK  127  A    between atoms: _321  and  _322
REMARK  128  A    between atoms: _322  and  _323
REMARK  129  A    between atoms: _326  and  _328
REMARK  130  A    between atoms: _328  and  _329
REMARK  131  A    between atoms: _328  and  _331
REMARK  132  A    between atoms: _331  and  _332
REMARK  133  A    between atoms: _334  and  _336
REMARK  134  A    between atoms: _336  and  _337
REMARK  135  A    between atoms: _336  and  _339
REMARK  136  A    between atoms: _339  and  _340
REMARK  137  A    between atoms: _343  and  _345
REMARK  138  A    between atoms: _345  and  _346
REMARK  139  A    between atoms: _348  and  _350
REMARK  140  A    between atoms: _350  and  _351
REMARK  141  A    between atoms: _350  and  _353
REMARK  142  A    between atoms: _353  and  _354
REMARK  143  A    between atoms: _364  and  _366
REMARK  144  A    between atoms: _366  and  _367
REMARK  145  A    between atoms: _366  and  _369
REMARK  146  A    between atoms: _369  and  _370
REMARK  147  A    between atoms: _370  and  _371
REMARK  148  A    between atoms: _371  and  _372
REMARK  149  A    between atoms: _381  and  _383
REMARK  150  A    between atoms: _383  and  _384
REMARK  151  A    between atoms: _383  and  _386
REMARK  152  A    between atoms: _386  and  _387
REMARK  153  A    between atoms: _387  and  _388
REMARK  154  A    between atoms: _388  and  _389
REMARK  155  A    between atoms: _389  and  _390
REMARK  156  A    between atoms: _394  and  _396
REMARK  157  A    between atoms: _396  and  _397
REMARK  158  A    between atoms: _396  and  _399
REMARK  159  A    between atoms: _399  and  _400
REMARK  160  A    between atoms: _400  and  _401
REMARK  161  A    between atoms: _406  and  _408
REMARK  162  A    between atoms: _408  and  _409
REMARK  163  A    between atoms: _408  and  _411
REMARK  164  A    between atoms: _411  and  _412
REMARK                            x       y       z     vdW  Elec       q    Type
REMARK                         _______ _______ _______ _____ _____    ______ ____
ROOT
ATOM      1  CA  GLY A   1      23.412  18.561  12.762  0.00  0.00    +0.156 C 
ENDROOT
BRANCH   1   2
ATOM      2  N   GLY A   1      24.208  19.542  13.500  0.00  0.00    -0.238 NA
ATOM      3  H   GLY A   1      24.975  19.228  14.128  0.00  0.00    +0.142 HD
ENDBRANCH   1   2
BRANCH   1   4
ATOM      4  C   GLY A   1      23.421  18.800  11.242  0.00  0.00    +0.226 C 
ATOM      5  O   GLY A   1      24.448  19.015  10.654  0.00  0.00    -0.287 OA
ENDBRANCH   1   4
TORSDOF 2
REMARK  Name = ../refined-set-2016/3uj9/3uj9_pocket.pdb
REMARK  164 active torsions:
REMARK  status: ('A' for Active; 'I' for Inactive)
REMARK    1  A    between atoms: _1  and  _3
REMARK    2  A    between atoms: _3  and  _4
REMARK    3  A    between atoms: _3  and  _6
REMARK    4  A    between atoms: _6  and  _7
REMARK    5  A    between atoms: _7  and  _8
REMARK    6  A    between atoms: _13  and  _15
REMARK    7  A    between atoms: _15  and  _16
REMARK    8  A    between atoms: _15  and  _18
REMARK    9  A    between atoms: _18  and  _19
REMARK   10  A    between atoms: _24  and  _25
REMARK   11  A    between atoms: _27  and  _29
REMARK   12  A    between atoms: _29  and  _30
REMARK   13  A    between atoms: _32  and  _34
REMARK   14  A    between atoms: _34  and  _35
REMARK   15  A    between atoms: _34  and  _37
REMARK   16  A    between atoms: _37  and  _38
REMARK   17  A    between atoms: _43  and  _44
REMARK   18  A    between atoms: _46  and  _48
REMARK   19  A    between atoms: _48  and  _49
REMARK   20  A    between atoms: _48  and  _51
REMARK   21  A    between atoms: _51  and  _52
REMARK   22  A    between atoms: _55  and  _57
REMARK   23  A    between atoms: _57  and  _58
REMARK   24  A    between atoms: _57  and  _60
REMARK   25  A    between atoms: _60  and  _61
REMARK   26  A    between atoms: _67  and  _69
REMARK   27  A    between atoms: _69  and  _70
REMARK   28  A    between atoms: _69  and  _72
REMARK   29  A    between atoms: _72  and  _73
REMARK   30  A    between atoms: _78  and  _79
REMARK   31  A    between atoms: _81  and  _83
REMARK   32  A    between atoms: _83  and  _84
REMARK   33  A    between atoms: _83  and  _86
REMARK   34  A    between atoms: _86  and  _87
REMARK   35  A    between atoms: _90  and  _92
REMARK   36  A    between atoms: _92  and  _93
REMARK   37  A    between atoms: _92  and  _95
REMARK   38  A    between atoms: _95  and  _96
REMARK   39  A    between atoms: _98  and  _100
REMARK   40  A    between atoms: _100  and  _101
REMARK   41  A    between atoms: _100  and  _103
REMARK   42  A    between atoms: _103  and  _104
REMARK   43  A    between atoms: _106  and  _108
REMARK   44  A    between atoms: _108  and  _109
REMARK   45  A    between atoms: _111  and  _113
REMARK   46  A    between atoms: _113  and  _114
REMARK   47  A    between atoms: _116  and  _118
REMARK   48  A    between atoms: _118  and  _119
REMARK   49  A    between atoms: _121  and  _123
REMARK   50  A    between atoms: _123  and  _124
REMARK   51  A    between atoms: _126  and  _128
REMARK   52  A    between atoms: _128  and  _129
REMARK   53  A    between atoms: _128  and  _131
REMARK   54  A    between atoms: _131  and  _132
REMARK   55  A    between atoms: _135  and  _137
REMARK   56  A    between atoms: _137  and  _138
REMARK   57  A    between atoms: _137  and  _140
REMARK   58  A    between atoms: _140  and  _141
REMARK   59  A    between atoms: _144  and  _146
REMARK   60  A    between atoms: _146  and  _147
REMARK   61  A    between atoms: _146  and  _149
REMARK   62  A    between atoms: _149  and  _150
REMARK   63  A    between atoms: _150  and  _151
REMARK   64  A    between atoms: _151  and  _152
REMARK   65  A    between atoms: _161  and  _163
REMARK   66  A    between atoms: _163  and  _164
REMARK   67  A    between atoms: _163  and  _166
REMARK   68  A    between atoms: _166  and  _167
REMARK   69  A    between atoms: _170  and  _172
REMARK   70  A    between atoms: _172  and  _173
REMARK   71  A    between atoms: _176  and  _178
REMARK   72  A    between atoms: _178  and  _179
REMARK   73  A    between atoms: _178  and  _181
REMARK   74  A    between atoms: _181  and  _182
REMARK   75  A    between atoms: _185  and  _187
REMARK   76  A    between atoms: _187  and  _188
REMARK   77  A    between atoms: _187  and  _190
REMARK   78  A    between atoms: _190  and  _191
REMARK   79  A    between atoms: _194  and  _196
REMARK   80  A    between atoms: _196  and  _197
REMARK   81  A    between atoms: _196  and  _199
REMARK   82  A    between atoms: _199  and  _200
REMARK   83  A    between atoms: _205  and  _207
REMARK   84  A    between atoms: _207  and  _208
REMARK   85  A    between atoms: _207  and  _210
REMARK   86  A    between atoms: _210  and  _211
REMARK   87  A    between atoms: _214  and  _216
REMARK   88  A    between atoms: _216  and  _217
REMARK   89  A    between atoms: _216  and  _219
REMARK   90  A    between atoms: _219  and  _220
REMARK   91  A    between atoms: _223  and  _225
REMARK   92  A    between atoms: _225  and  _226
REMARK   93  A    between atoms: _225  and  _228
REMARK   94  A    between atoms: _228  and  _229
REMARK   95  A    between atoms: _234  and  _235
REMARK   96  A    between atoms: _237  and  _239
REMARK   97  A    between atoms: _239  and  _240
REMARK   98  A    between atoms: _239  and  _242
REMARK   99  A    between atoms: _242  and  _243
REMARK  100  A    between atoms: _248  and  _249
REMARK  101  A    between atoms: _251  and  _253
REMARK  102  A    between atoms: _253  and  _254
REMARK  103  A    between atoms: _253  and  _256
REMARK  104  A    between atoms: _256  and  _257
REMARK  105  A    between atoms: _257  and  _258
REMARK  106  A    between atoms: _258  and  _259
REMARK  107  A    between atoms: _268  and  _270
REMARK  108  A    between atoms: _270  and  _271
REMARK  109  A    between atoms: _270  and  _273
REMARK  110  A    between atoms: _273  and  _274
REMARK  111  A    between atoms: _279  and  _280
REMARK  112  A    between atoms: _282  and  _284
REMARK  113  A    between atoms: _284  and  _285
REMARK  114  A    between atoms: _284  and  _287
REMARK  115  A    between atoms: _287  and  _288
REMARK  116  A    between atoms: _291  and  _293
REMARK  117  A    between atoms: _293  and  _294
REMARK  118  A    between atoms: _293  and  _296
REMARK  119  A    between atoms: _296  and  _297
REMARK  120  A    between atoms: _307  and  _309
REMARK  121  A    between atoms: _309  and  _310
REMARK  122  A    between atoms: _309  and  _312
REMARK  123  A    between atoms: _312  and  _313
REMARK  124  A    between atoms: _316  and  _318
REMARK  125  A    between atoms: _318  and  _319
REMARK  126  A    between atoms: _318  and  _321
REMARK  127  A    between atoms: _321  and  _322
REMARK  128  A    between atoms: _322  and  _323
REMARK  129  A    between atoms: _326  and  _328
REMARK  130  A    between atoms: _328  and  _329
REMARK  131  A    between atoms: _328  and  _331
REMARK  132  A    between atoms: _331  and  _332
REMARK  133  A    between atoms: _334  and  _336
REMARK  134  A    between atoms: _336  and  _337
REMARK  135  A    between atoms: _336  and  _339
REMARK  136  A    between atoms: _339  and  _340
REMARK  137  A    between atoms: _343  and  _345
REMARK  138  A    between atoms: _345  and  _346
REMARK  139  A    between atoms: _348  and  _350
REMARK  140  A    between atoms: _350  and  _351
REMARK  141  A    between atoms: _350  and  _353
REMARK  142  A    between atoms: _353  and  _354
REMARK  143  A    between atoms: _364  and  _366
REMARK  144  A    between atoms: _366  and  _367
REMARK  145  A    between atoms: _366  and  _369
REMARK  146  A    between atoms: _369  and  _370
REMARK  147  A    between atoms: _370  and  _371
REMARK  148  A    between atoms: _371  and  _372
REMARK  149  A    between atoms: _381  and  _383
REMARK  150  A    between atoms: _383  and  _384
REMARK  151  A    between atoms: _383  and  _386
REMARK  152  A    between atoms: _386  and  _387
REMARK  153  A    between atoms: _387  and  _388
REMARK  154  A    between atoms: _388  and  _389
REMARK  155  A    between atoms: _389  and  _390
REMARK  156  A    between atoms: _394  and  _396
REMARK  157  A    between atoms: _396  and  _397
REMARK  158  A    between atoms: _396  and  _399
REMARK  159  A    between atoms: _399  and  _400
REMARK  160  A    between atoms: _400  and  _401
REMARK  161  A    between atoms: _406  and  _408
REMARK  162  A    between atoms: _408  and  _409
REMARK  163  A    between atoms: _408  and  _411
REMARK  164  A    between atoms: _411  and  _412
REMARK                            x       y       z     vdW  Elec       q    Type
REMARK                         _______ _______ _______ _____ _____    ______ ____
ROOT
ATOM      1  CA  ASP A   1      29.177  18.635  15.371  0.00  0.00    +0.144 C 
ENDROOT
BRANCH   1   2
ATOM      2  N   ASP A   1      29.832  19.902  15.090  0.00  0.00    -0.239 NA
ATOM      3  H   ASP A   1      30.644  19.911  14.441  0.00  0.00    +0.142 HD
ENDBRANCH   1   2
BRANCH   1   4
ATOM      4  C   ASP A   1      30.265  17.563  15.393  0.00  0.00    +0.225 C 
ATOM      5  O   ASP A   1      31.169  17.600  14.616  0.00  0.00    -0.287 OA
ENDBRANCH   1   4
BRANCH   1   6
ATOM      6  CB  ASP A   1      28.114  18.344  14.306  0.00  0.00    +0.139 C 
BRANCH   6   7
ATOM      7  CG  ASP A   1      27.078  17.366  14.760  0.00  0.00    +0.367 C 
ATOM      8  OD2 ASP A   1      25.925  17.723  14.949  0.00  0.00    -0.246 OA
ATOM      9  OD1 ASP A   1      27.461  16.216  14.838  0.00  0.00    -0.246 OA
ENDBRANCH   6   7
ENDBRANCH   1   6
TORSDOF 4
REMARK  Name = ../refined-set-2016/3uj9/3uj9_pocket.pdb
REMARK  164 active torsions:
REMARK  status: ('A' for Active; 'I' for Inactive)
REMARK    1  A    between atoms: _1  and  _3
REMARK    2  A    between atoms: _3  and  _4
REMARK    3  A    between atoms: _3  and  _6
REMARK    4  A    between atoms: _6  and  _7
REMARK    5  A    between atoms: _7  and  _8
REMARK    6  A    between atoms: _13  and  _15
REMARK    7  A    between atoms: _15  and  _16
REMARK    8  A    between atoms: _15  and  _18
REMARK    9  A    between atoms: _18  and  _19
REMARK   10  A    between atoms: _24  and  _25
REMARK   11  A    between atoms: _27  and  _29
REMARK   12  A    between atoms: _29  and  _30
REMARK   13  A    between atoms: _32  and  _34
REMARK   14  A    between atoms: _34  and  _35
REMARK   15  A    between atoms: _34  and  _37
REMARK   16  A    between atoms: _37  and  _38
REMARK   17  A    between atoms: _43  and  _44
REMARK   18  A    between atoms: _46  and  _48
REMARK   19  A    between atoms: _48  and  _49
REMARK   20  A    between atoms: _48  and  _51
REMARK   21  A    between atoms: _51  and  _52
REMARK   22  A    between atoms: _55  and  _57
REMARK   23  A    between atoms: _57  and  _58
REMARK   24  A    between atoms: _57  and  _60
REMARK   25  A    between atoms: _60  and  _61
REMARK   26  A    between atoms: _67  and  _69
REMARK   27  A    between atoms: _69  and  _70
REMARK   28  A    between atoms: _69  and  _72
REMARK   29  A    between atoms: _72  and  _73
REMARK   30  A    between atoms: _78  and  _79
REMARK   31  A    between atoms: _81  and  _83
REMARK   32  A    between atoms: _83  and  _84
REMARK   33  A    between atoms: _83  and  _86
REMARK   34  A    between atoms: _86  and  _87
REMARK   35  A    between atoms: _90  and  _92
REMARK   36  A    between atoms: _92  and  _93
REMARK   37  A    between atoms: _92  and  _95
REMARK   38  A    between atoms: _95  and  _96
REMARK   39  A    between atoms: _98  and  _100
REMARK   40  A    between atoms: _100  and  _101
REMARK   41  A    between atoms: _100  and  _103
REMARK   42  A    between atoms: _103  and  _104
REMARK   43  A    between atoms: _106  and  _108
REMARK   44  A    between atoms: _108  and  _109
REMARK   45  A    between atoms: _111  and  _113
REMARK   46  A    between atoms: _113  and  _114
REMARK   47  A    between atoms: _116  and  _118
REMARK   48  A    between atoms: _118  and  _119
REMARK   49  A    between atoms: _121  and  _123
REMARK   50  A    between atoms: _123  and  _124
REMARK   51  A    between atoms: _126  and  _128
REMARK   52  A    between atoms: _128  and  _129
REMARK   53  A    between atoms: _128  and  _131
REMARK   54  A    between atoms: _131  and  _132
REMARK   55  A    between atoms: _135  and  _137
REMARK   56  A    between atoms: _137  and  _138
REMARK   57  A    between atoms: _137  and  _140
REMARK   58  A    between atoms: _140  and  _141
REMARK   59  A    between atoms: _144  and  _146
REMARK   60  A    between atoms: _146  and  _147
REMARK   61  A    between atoms: _146  and  _149
REMARK   62  A    between atoms: _149  and  _150
REMARK   63  A    between atoms: _150  and  _151
REMARK   64  A    between atoms: _151  and  _152
REMARK   65  A    between atoms: _161  and  _163
REMARK   66  A    between atoms: _163  and  _164
REMARK   67  A    between atoms: _163  and  _166
REMARK   68  A    between atoms: _166  and  _167
REMARK   69  A    between atoms: _170  and  _172
REMARK   70  A    between atoms: _172  and  _173
REMARK   71  A    between atoms: _176  and  _178
REMARK   72  A    between atoms: _178  and  _179
REMARK   73  A    between atoms: _178  and  _181
REMARK   74  A    between atoms: _181  and  _182
REMARK   75  A    between atoms: _185  and  _187
REMARK   76  A    between atoms: _187  and  _188
REMARK   77  A    between atoms: _187  and  _190
REMARK   78  A    between atoms: _190  and  _191
REMARK   79  A    between atoms: _194  and  _196
REMARK   80  A    between atoms: _196  and  _197
REMARK   81  A    between atoms: _196  and  _199
REMARK   82  A    between atoms: _199  and  _200
REMARK   83  A    between atoms: _205  and  _207
REMARK   84  A    between atoms: _207  and  _208
REMARK   85  A    between atoms: _207  and  _210
REMARK   86  A    between atoms: _210  and  _211
REMARK   87  A    between atoms: _214  and  _216
REMARK   88  A    between atoms: _216  and  _217
REMARK   89  A    between atoms: _216  and  _219
REMARK   90  A    between atoms: _219  and  _220
REMARK   91  A    between atoms: _223  and  _225
REMARK   92  A    between atoms: _225  and  _226
REMARK   93  A    between atoms: _225  and  _228
REMARK   94  A    between atoms: _228  and  _229
REMARK   95  A    between atoms: _234  and  _235
REMARK   96  A    between atoms: _237  and  _239
REMARK   97  A    between atoms: _239  and  _240
REMARK   98  A    between atoms: _239  and  _242
REMARK   99  A    between atoms: _242  and  _243
REMARK  100  A    between atoms: _248  and  _249
REMARK  101  A    between atoms: _251  and  _253
REMARK  102  A    between atoms: _253  and  _254
REMARK  103  A    between atoms: _253  and  _256
REMARK  104  A    between atoms: _256  and  _257
REMARK  105  A    between atoms: _257  and  _258
REMARK  106  A    between atoms: _258  and  _259
REMARK  107  A    between atoms: _268  and  _270
REMARK  108  A    between atoms: _270  and  _271
REMARK  109  A    between atoms: _270  and  _273
REMARK  110  A    between atoms: _273  and  _274
REMARK  111  A    between atoms: _279  and  _280
REMARK  112  A    between atoms: _282  and  _284
REMARK  113  A    between atoms: _284  and  _285
REMARK  114  A    between atoms: _284  and  _287
REMARK  115  A    between atoms: _287  and  _288
REMARK  116  A    between atoms: _291  and  _293
REMARK  117  A    between atoms: _293  and  _294
REMARK  118  A    between atoms: _293  and  _296
REMARK  119  A    between atoms: _296  and  _297
REMARK  120  A    between atoms: _307  and  _309
REMARK  121  A    between atoms: _309  and  _310
REMARK  122  A    between atoms: _309  and  _312
REMARK  123  A    between atoms: _312  and  _313
REMARK  124  A    between atoms: _316  and  _318
REMARK  125  A    between atoms: _318  and  _319
REMARK  126  A    between atoms: _318  and  _321
REMARK  127  A    between atoms: _321  and  _322
REMARK  128  A    between atoms: _322  and  _323
REMARK  129  A    between atoms: _326  and  _328
REMARK  130  A    between atoms: _328  and  _329
REMARK  131  A    between atoms: _328  and  _331
REMARK  132  A    between atoms: _331  and  _332
REMARK  133  A    between atoms: _334  and  _336
REMARK  134  A    between atoms: _336  and  _337
REMARK  135  A    between atoms: _336  and  _339
REMARK  136  A    between atoms: _339  and  _340
REMARK  137  A    between atoms: _343  and  _345
REMARK  138  A    between atoms: _345  and  _346
REMARK  139  A    between atoms: _348  and  _350
REMARK  140  A    between atoms: _350  and  _351
REMARK  141  A    between atoms: _350  and  _353
REMARK  142  A    between atoms: _353  and  _354
REMARK  143  A    between atoms: _364  and  _366
REMARK  144  A    between atoms: _366  and  _367
REMARK  145  A    between atoms: _366  and  _369
REMARK  146  A    between atoms: _369  and  _370
REMARK  147  A    between atoms: _370  and  _371
REMARK  148  A    between atoms: _371  and  _372
REMARK  149  A    between atoms: _381  and  _383
REMARK  150  A    between atoms: _383  and  _384
REMARK  151  A    between atoms: _383  and  _386
REMARK  152  A    between atoms: _386  and  _387
REMARK  153  A    between atoms: _387  and  _388
REMARK  154  A    between atoms: _388  and  _389
REMARK  155  A    between atoms: _389  and  _390
REMARK  156  A    between atoms: _394  and  _396
REMARK  157  A    between atoms: _396  and  _397
REMARK  158  A    between atoms: _396  and  _399
REMARK  159  A    between atoms: _399  and  _400
REMARK  160  A    between atoms: _400  and  _401
REMARK  161  A    between atoms: _406  and  _408
REMARK  162  A    between atoms: _408  and  _409
REMARK  163  A    between atoms: _408  and  _411
REMARK  164  A    between atoms: _411  and  _412
REMARK                            x       y       z     vdW  Elec       q    Type
REMARK                         _______ _______ _______ _____ _____    ______ ____
ROOT
ATOM      1  CA  ILE A   1      26.565  14.639   9.489  0.00  0.00    +0.133 C 
ENDROOT
BRANCH   1   2
ATOM      2  N   ILE A   1      27.611  13.647   9.442  0.00  0.00    -0.239 NA
ATOM      3  H   ILE A   1      27.992  13.261  10.329  0.00  0.00    +0.142 HD
ENDBRANCH   1   2
BRANCH   1   4
ATOM      4  CB  ILE A   1      26.045  14.831  10.944  0.00  0.00    +0.023 C 
ATOM      5  CG2 ILE A   1      25.167  16.043  11.042  0.00  0.00    +0.002 C 
BRANCH   4   6
ATOM      6  CG1 ILE A   1      25.357  13.600  11.465  0.00  0.00    +0.002 C 
ATOM      7  CD1 ILE A   1      24.898  13.784  12.926  0.00  0.00    +0.000 C 
ENDBRANCH   4   6
ENDBRANCH   1   4
BRANCH   1   8
ATOM      8  C   ILE A   1      27.097  15.995   8.987  0.00  0.00    +0.224 C 
ATOM      9  O   ILE A   1      26.443  16.679   8.313  0.00  0.00    -0.287 OA
ENDBRANCH   1   8
TORSDOF 4
REMARK  Name = ../refined-set-2016/3uj9/3uj9_pocket.pdb
REMARK  164 active torsions:
REMARK  status: ('A' for Active; 'I' for Inactive)
REMARK    1  A    between atoms: _1  and  _3
REMARK    2  A    between atoms: _3  and  _4
REMARK    3  A    between atoms: _3  and  _6
REMARK    4  A    between atoms: _6  and  _7
REMARK    5  A    between atoms: _7  and  _8
REMARK    6  A    between atoms: _13  and  _15
REMARK    7  A    between atoms: _15  and  _16
REMARK    8  A    between atoms: _15  and  _18
REMARK    9  A    between atoms: _18  and  _19
REMARK   10  A    between atoms: _24  and  _25
REMARK   11  A    between atoms: _27  and  _29
REMARK   12  A    between atoms: _29  and  _30
REMARK   13  A    between atoms: _32  and  _34
REMARK   14  A    between atoms: _34  and  _35
REMARK   15  A    between atoms: _34  and  _37
REMARK   16  A    between atoms: _37  and  _38
REMARK   17  A    between atoms: _43  and  _44
REMARK   18  A    between atoms: _46  and  _48
REMARK   19  A    between atoms: _48  and  _49
REMARK   20  A    between atoms: _48  and  _51
REMARK   21  A    between atoms: _51  and  _52
REMARK   22  A    between atoms: _55  and  _57
REMARK   23  A    between atoms: _57  and  _58
REMARK   24  A    between atoms: _57  and  _60
REMARK   25  A    between atoms: _60  and  _61
REMARK   26  A    between atoms: _67  and  _69
REMARK   27  A    between atoms: _69  and  _70
REMARK   28  A    between atoms: _69  and  _72
REMARK   29  A    between atoms: _72  and  _73
REMARK   30  A    between atoms: _78  and  _79
REMARK   31  A    between atoms: _81  and  _83
REMARK   32  A    between atoms: _83  and  _84
REMARK   33  A    between atoms: _83  and  _86
REMARK   34  A    between atoms: _86  and  _87
REMARK   35  A    between atoms: _90  and  _92
REMARK   36  A    between atoms: _92  and  _93
REMARK   37  A    between atoms: _92  and  _95
REMARK   38  A    between atoms: _95  and  _96
REMARK   39  A    between atoms: _98  and  _100
REMARK   40  A    between atoms: _100  and  _101
REMARK   41  A    between atoms: _100  and  _103
REMARK   42  A    between atoms: _103  and  _104
REMARK   43  A    between atoms: _106  and  _108
REMARK   44  A    between atoms: _108  and  _109
REMARK   45  A    between atoms: _111  and  _113
REMARK   46  A    between atoms: _113  and  _114
REMARK   47  A    between atoms: _116  and  _118
REMARK   48  A    between atoms: _118  and  _119
REMARK   49  A    between atoms: _121  and  _123
REMARK   50  A    between atoms: _123  and  _124
REMARK   51  A    between atoms: _126  and  _128
REMARK   52  A    between atoms: _128  and  _129
REMARK   53  A    between atoms: _128  and  _131
REMARK   54  A    between atoms: _131  and  _132
REMARK   55  A    between atoms: _135  and  _137
REMARK   56  A    between atoms: _137  and  _138
REMARK   57  A    between atoms: _137  and  _140
REMARK   58  A    between atoms: _140  and  _141
REMARK   59  A    between atoms: _144  and  _146
REMARK   60  A    between atoms: _146  and  _147
REMARK   61  A    between atoms: _146  and  _149
REMARK   62  A    between atoms: _149  and  _150
REMARK   63  A    between atoms: _150  and  _151
REMARK   64  A    between atoms: _151  and  _152
REMARK   65  A    between atoms: _161  and  _163
REMARK   66  A    between atoms: _163  and  _164
REMARK   67  A    between atoms: _163  and  _166
REMARK   68  A    between atoms: _166  and  _167
REMARK   69  A    between atoms: _170  and  _172
REMARK   70  A    between atoms: _172  and  _173
REMARK   71  A    between atoms: _176  and  _178
REMARK   72  A    between atoms: _178  and  _179
REMARK   73  A    between atoms: _178  and  _181
REMARK   74  A    between atoms: _181  and  _182
REMARK   75  A    between atoms: _185  and  _187
REMARK   76  A    between atoms: _187  and  _188
REMARK   77  A    between atoms: _187  and  _190
REMARK   78  A    between atoms: _190  and  _191
REMARK   79  A    between atoms: _194  and  _196
REMARK   80  A    between atoms: _196  and  _197
REMARK   81  A    between atoms: _196  and  _199
REMARK   82  A    between atoms: _199  and  _200
REMARK   83  A    between atoms: _205  and  _207
REMARK   84  A    between atoms: _207  and  _208
REMARK   85  A    between atoms: _207  and  _210
REMARK   86  A    between atoms: _210  and  _211
REMARK   87  A    between atoms: _214  and  _216
REMARK   88  A    between atoms: _216  and  _217
REMARK   89  A    between atoms: _216  and  _219
REMARK   90  A    between atoms: _219  and  _220
REMARK   91  A    between atoms: _223  and  _225
REMARK   92  A    between atoms: _225  and  _226
REMARK   93  A    between atoms: _225  and  _228
REMARK   94  A    between atoms: _228  and  _229
REMARK   95  A    between atoms: _234  and  _235
REMARK   96  A    between atoms: _237  and  _239
REMARK   97  A    between atoms: _239  and  _240
REMARK   98  A    between atoms: _239  and  _242
REMARK   99  A    between atoms: _242  and  _243
REMARK  100  A    between atoms: _248  and  _249
REMARK  101  A    between atoms: _251  and  _253
REMARK  102  A    between atoms: _253  and  _254
REMARK  103  A    between atoms: _253  and  _256
REMARK  104  A    between atoms: _256  and  _257
REMARK  105  A    between atoms: _257  and  _258
REMARK  106  A    between atoms: _258  and  _259
REMARK  107  A    between atoms: _268  and  _270
REMARK  108  A    between atoms: _270  and  _271
REMARK  109  A    between atoms: _270  and  _273
REMARK  110  A    between atoms: _273  and  _274
REMARK  111  A    between atoms: _279  and  _280
REMARK  112  A    between atoms: _282  and  _284
REMARK  113  A    between atoms: _284  and  _285
REMARK  114  A    between atoms: _284  and  _287
REMARK  115  A    between atoms: _287  and  _288
REMARK  116  A    between atoms: _291  and  _293
REMARK  117  A    between atoms: _293  and  _294
REMARK  118  A    between atoms: _293  and  _296
REMARK  119  A    between atoms: _296  and  _297
REMARK  120  A    between atoms: _307  and  _309
REMARK  121  A    between atoms: _309  and  _310
REMARK  122  A    between atoms: _309  and  _312
REMARK  123  A    between atoms: _312  and  _313
REMARK  124  A    between atoms: _316  and  _318
REMARK  125  A    between atoms: _318  and  _319
REMARK  126  A    between atoms: _318  and  _321
REMARK  127  A    between atoms: _321  and  _322
REMARK  128  A    between atoms: _322  and  _323
REMARK  129  A    between atoms: _326  and  _328
REMARK  130  A    between atoms: _328  and  _329
REMARK  131  A    between atoms: _328  and  _331
REMARK  132  A    between atoms: _331  and  _332
REMARK  133  A    between atoms: _334  and  _336
REMARK  134  A    between atoms: _336  and  _337
REMARK  135  A    between atoms: _336  and  _339
REMARK  136  A    between atoms: _339  and  _340
REMARK  137  A    between atoms: _343  and  _345
REMARK  138  A    between atoms: _345  and  _346
REMARK  139  A    between atoms: _348  and  _350
REMARK  140  A    between atoms: _350  and  _351
REMARK  141  A    between atoms: _350  and  _353
REMARK  142  A    between atoms: _353  and  _354
REMARK  143  A    between atoms: _364  and  _366
REMARK  144  A    between atoms: _366  and  _367
REMARK  145  A    between atoms: _366  and  _369
REMARK  146  A    between atoms: _369  and  _370
REMARK  147  A    between atoms: _370  and  _371
REMARK  148  A    between atoms: _371  and  _372
REMARK  149  A    between atoms: _381  and  _383
REMARK  150  A    between atoms: _383  and  _384
REMARK  151  A    between atoms: _383  and  _386
REMARK  152  A    between atoms: _386  and  _387
REMARK  153  A    between atoms: _387  and  _388
REMARK  154  A    between atoms: _388  and  _389
REMARK  155  A    between atoms: _389  and  _390
REMARK  156  A    between atoms: _394  and  _396
REMARK  157  A    between atoms: _396  and  _397
REMARK  158  A    between atoms: _396  and  _399
REMARK  159  A    between atoms: _399  and  _400
REMARK  160  A    between atoms: _400  and  _401
REMARK  161  A    between atoms: _406  and  _408
REMARK  162  A    between atoms: _408  and  _409
REMARK  163  A    between atoms: _408  and  _411
REMARK  164  A    between atoms: _411  and  _412
REMARK                            x       y       z     vdW  Elec       q    Type
REMARK                         _______ _______ _______ _____ _____    ______ ____
ROOT
ATOM      1  C   ALA A   3      23.305  17.685  22.769  0.00  0.00    +0.241 C 
ATOM      2  N   ILE A   4      23.114  18.458  23.828  0.00  0.00    -0.297 N 
ATOM      3  H   ILE A   4      22.351  19.164  23.797  0.00  0.00    +0.150 HD
ATOM      4  O   ALA A   3      24.103  16.809  22.770  0.00  0.00    -0.273 OA
ENDROOT
BRANCH   1   5
ATOM      5  CA  ALA A   3      22.491  18.000  21.522  0.00  0.00    +0.149 C 
ATOM      6  CB  ALA A   3      23.310  18.888  20.569  0.00  0.00    +0.031 C 
BRANCH   5   8
ATOM      7  C   ASP A   2      20.069  18.114  21.252  0.00  0.00    +0.241 C 
ATOM      8  N   ALA A   3      21.185  18.619  21.740  0.00  0.00    -0.297 N 
ATOM      9  H   ALA A   3      21.134  19.492  22.302  0.00  0.00    +0.150 HD
ATOM     10  O   ASP A   2      19.998  17.104  20.591  0.00  0.00    -0.273 OA
BRANCH   7  11
ATOM     11  CA  ASP A   2      18.810  18.910  21.584  0.00  0.00    +0.160 C 
BRANCH  11  13
ATOM     12  C   ARG A   1      19.383  20.845  20.193  0.00  0.00    +0.238 C 
ATOM     13  N   ASP A   2      18.995  20.340  21.351  0.00  0.00    -0.297 N 
ATOM     14  H   ASP A   2      18.812  20.995  22.138  0.00  0.00    +0.150 HD
ATOM     15  O   ARG A   1      19.839  20.149  19.308  0.00  0.00    -0.274 OA
BRANCH  12  16
ATOM     16  CA  ARG A   1      19.274  22.364  20.040  0.00  0.00    +0.145 C 
BRANCH  16  17
ATOM     17  N   ARG A   1      20.604  22.952  20.146  0.00  0.00    -0.238 NA
ATOM     18  H   ARG A   1      21.349  22.622  19.499  0.00  0.00    +0.142 HD
ENDBRANCH  16  17
BRANCH  16  19
ATOM     19  CB  ARG A   1      18.665  22.706  18.654  0.00  0.00    +0.030 C 
BRANCH  19  20
ATOM     20  CG  ARG A   1      18.412  24.219  18.516  0.00  0.00    +0.045 C 
BRANCH  20  21
ATOM     21  CD  ARG A   1      17.255  24.749  19.409  0.00  0.00    +0.174 C 
BRANCH  21  22
ATOM     22  NE  ARG A   1      16.242  23.717  19.536  0.00  0.00    -0.265 N 
ATOM     23  HE  ARG A   1      16.166  23.226  20.450  0.00  0.00    +0.259 HD
ATOM     24  CZ  ARG A   1      15.407  23.355  18.572  0.00  0.00    +0.342 C 
ATOM     25  NH2 ARG A   1      14.641  22.287  18.741  0.00  0.00    -0.292 N 
ATOM     26 HH21 ARG A   1      14.698  21.741  19.624  0.00  0.00    +0.255 HD
ATOM     27 HH22 ARG A   1      13.983  21.995  17.991  0.00  0.00    +0.255 HD
ATOM     28  NH1 ARG A   1      15.352  24.056  17.457  0.00  0.00    -0.292 N 
ATOM     29 HH11 ARG A   1      15.962  24.889  17.336  0.00  0.00    +0.255 HD
ATOM     30 HH12 ARG A   1      14.698  23.776  16.698  0.00  0.00    +0.255 HD
ENDBRANCH  21  22
ENDBRANCH  20  21
ENDBRANCH  19  20
ENDBRANCH  16  19
ENDBRANCH  12  16
ENDBRANCH  11  13
BRANCH  11  31
ATOM     31  CB  ASP A   2      17.573  18.391  20.819  0.00  0.00    +0.143 C 
BRANCH  31  32
ATOM     32  CG  ASP A   2      16.336  19.230  21.070  0.00  0.00    +0.367 C 
ATOM     33  OD2 ASP A   2      16.242  19.838  22.105  0.00  0.00    -0.246 OA
ATOM     34  OD1 ASP A   2      15.510  19.316  20.174  0.00  0.00    -0.246 OA
ENDBRANCH  31  32
ENDBRANCH  11  31
ENDBRANCH   7  11
ENDBRANCH   5   8
ENDBRANCH   1   5
BRANCH   2  35
ATOM     35  CA  ILE A   4      23.922  18.362  25.029  0.00  0.00    +0.149 C 
BRANCH  35  36
ATOM     36  C   ILE A   4      23.521  17.131  25.856  0.00  0.00    +0.241 C 
ATOM     37  O   ILE A   4      24.260  16.702  26.642  0.00  0.00    -0.273 OA
ATOM     38  N   LEU A   5      22.357  16.561  25.607  0.00  0.00    -0.297 N 
ATOM     39  H   LEU A   5      21.697  17.040  24.961  0.00  0.00    +0.150 HD
BRANCH  38  40
ATOM     40  CA  LEU A   5      21.947  15.262  26.210  0.00  0.00    +0.149 C 
BRANCH  40  41
ATOM     41  C   LEU A   5      22.990  14.145  26.053  0.00  0.00    +0.241 C 
ATOM     42  O   LEU A   5      22.989  13.223  26.782  0.00  0.00    -0.273 OA
ATOM     43  N   HIS A   6      23.823  14.247  25.030  0.00  0.00    -0.298 N 
ATOM     44  H   HIS A   6      23.752  15.071  24.399  0.00  0.00    +0.150 HD
BRANCH  43  45
ATOM     45  CA  HIS A   6      24.842  13.229  24.763  0.00  0.00    +0.143 C 
BRANCH  45  46
ATOM     46  C   HIS A   6      26.007  13.322  25.749  0.00  0.00    +0.227 C 
ATOM     47  O   HIS A   6      26.751  12.412  25.868  0.00  0.00    -0.286 OA
ENDBRANCH  45  46
BRANCH  45  48
ATOM     48  CB  HIS A   6      25.351  13.382  23.328  0.00  0.00    +0.075 C 
BRANCH  48  49
ATOM     49  CG  HIS A   6      24.359  12.979  22.303  0.00  0.00    +0.082 A 
ATOM     50  ND1 HIS A   6      23.929  11.687  22.180  0.00  0.00    -0.227 NA
ATOM     51  CE1 HIS A   6      23.070  11.618  21.188  0.00  0.00    +0.199 A 
ATOM     52  NE2 HIS A   6      22.954  12.805  20.647  0.00  0.00    -0.221 NA
ATOM     53  CD2 HIS A   6      23.752  13.676  21.319  0.00  0.00    +0.115 A 
ENDBRANCH  48  49
ENDBRANCH  45  48
ENDBRANCH  43  45
ENDBRANCH  40  41
BRANCH  40  54
ATOM     54  CB  LEU A   5      20.580  14.797  25.697  0.00  0.00    +0.029 C 
BRANCH  54  55
ATOM     55  CG  LEU A   5      20.526  14.263  24.243  0.00  0.00    +0.002 C 
ATOM     56  CD2 LEU A   5      19.088  13.835  23.921  0.00  0.00    +0.000 C 
ATOM     57  CD1 LEU A   5      20.987  15.292  23.167  0.00  0.00    +0.000 C 
ENDBRANCH  54  55
ENDBRANCH  40  54
ENDBRANCH  38  40
ENDBRANCH  35  36
BRANCH  35  58
ATOM     58  CB  ILE A   4      23.933  19.742  25.759  0.00  0.00    +0.027 C 
ATOM     59  CG2 ILE A   4      24.516  19.630  27.172  0.00  0.00    +0.002 C 
BRANCH  58  60
ATOM     60  CG1 ILE A   4      24.737  20.742  24.880  0.00  0.00    +0.002 C 
ATOM     61  CD1 ILE A   4      24.539  22.211  25.224  0.00  0.00    +0.000 C 
ENDBRANCH  58  60
ENDBRANCH  35  58
ENDBRANCH   2  35
TORSDOF 24
REMARK  Name = ../refined-set-2016/3uj9/3uj9_pocket.pdb
REMARK  164 active torsions:
REMARK  status: ('A' for Active; 'I' for Inactive)
REMARK    1  A    between atoms: _1  and  _3
REMARK    2  A    between atoms: _3  and  _4
REMARK    3  A    between atoms: _3  and  _6
REMARK    4  A    between atoms: _6  and  _7
REMARK    5  A    between atoms: _7  and  _8
REMARK    6  A    between atoms: _13  and  _15
REMARK    7  A    between atoms: _15  and  _16
REMARK    8  A    between atoms: _15  and  _18
REMARK    9  A    between atoms: _18  and  _19
REMARK   10  A    between atoms: _24  and  _25
REMARK   11  A    between atoms: _27  and  _29
REMARK   12  A    between atoms: _29  and  _30
REMARK   13  A    between atoms: _32  and  _34
REMARK   14  A    between atoms: _34  and  _35
REMARK   15  A    between atoms: _34  and  _37
REMARK   16  A    between atoms: _37  and  _38
REMARK   17  A    between atoms: _43  and  _44
REMARK   18  A    between atoms: _46  and  _48
REMARK   19  A    between atoms: _48  and  _49
REMARK   20  A    between atoms: _48  and  _51
REMARK   21  A    between atoms: _51  and  _52
REMARK   22  A    between atoms: _55  and  _57
REMARK   23  A    between atoms: _57  and  _58
REMARK   24  A    between atoms: _57  and  _60
REMARK   25  A    between atoms: _60  and  _61
REMARK   26  A    between atoms: _67  and  _69
REMARK   27  A    between atoms: _69  and  _70
REMARK   28  A    between atoms: _69  and  _72
REMARK   29  A    between atoms: _72  and  _73
REMARK   30  A    between atoms: _78  and  _79
REMARK   31  A    between atoms: _81  and  _83
REMARK   32  A    between atoms: _83  and  _84
REMARK   33  A    between atoms: _83  and  _86
REMARK   34  A    between atoms: _86  and  _87
REMARK   35  A    between atoms: _90  and  _92
REMARK   36  A    between atoms: _92  and  _93
REMARK   37  A    between atoms: _92  and  _95
REMARK   38  A    between atoms: _95  and  _96
REMARK   39  A    between atoms: _98  and  _100
REMARK   40  A    between atoms: _100  and  _101
REMARK   41  A    between atoms: _100  and  _103
REMARK   42  A    between atoms: _103  and  _104
REMARK   43  A    between atoms: _106  and  _108
REMARK   44  A    between atoms: _108  and  _109
REMARK   45  A    between atoms: _111  and  _113
REMARK   46  A    between atoms: _113  and  _114
REMARK   47  A    between atoms: _116  and  _118
REMARK   48  A    between atoms: _118  and  _119
REMARK   49  A    between atoms: _121  and  _123
REMARK   50  A    between atoms: _123  and  _124
REMARK   51  A    between atoms: _126  and  _128
REMARK   52  A    between atoms: _128  and  _129
REMARK   53  A    between atoms: _128  and  _131
REMARK   54  A    between atoms: _131  and  _132
REMARK   55  A    between atoms: _135  and  _137
REMARK   56  A    between atoms: _137  and  _138
REMARK   57  A    between atoms: _137  and  _140
REMARK   58  A    between atoms: _140  and  _141
REMARK   59  A    between atoms: _144  and  _146
REMARK   60  A    between atoms: _146  and  _147
REMARK   61  A    between atoms: _146  and  _149
REMARK   62  A    between atoms: _149  and  _150
REMARK   63  A    between atoms: _150  and  _151
REMARK   64  A    between atoms: _151  and  _152
REMARK   65  A    between atoms: _161  and  _163
REMARK   66  A    between atoms: _163  and  _164
REMARK   67  A    between atoms: _163  and  _166
REMARK   68  A    between atoms: _166  and  _167
REMARK   69  A    between atoms: _170  and  _172
REMARK   70  A    between atoms: _172  and  _173
REMARK   71  A    between atoms: _176  and  _178
REMARK   72  A    between atoms: _178  and  _179
REMARK   73  A    between atoms: _178  and  _181
REMARK   74  A    between atoms: _181  and  _182
REMARK   75  A    between atoms: _185  and  _187
REMARK   76  A    between atoms: _187  and  _188
REMARK   77  A    between atoms: _187  and  _190
REMARK   78  A    between atoms: _190  and  _191
REMARK   79  A    between atoms: _194  and  _196
REMARK   80  A    between atoms: _196  and  _197
REMARK   81  A    between atoms: _196  and  _199
REMARK   82  A    between atoms: _199  and  _200
REMARK   83  A    between atoms: _205  and  _207
REMARK   84  A    between atoms: _207  and  _208
REMARK   85  A    between atoms: _207  and  _210
REMARK   86  A    between atoms: _210  and  _211
REMARK   87  A    between atoms: _214  and  _216
REMARK   88  A    between atoms: _216  and  _217
REMARK   89  A    between atoms: _216  and  _219
REMARK   90  A    between atoms: _219  and  _220
REMARK   91  A    between atoms: _223  and  _225
REMARK   92  A    between atoms: _225  and  _226
REMARK   93  A    between atoms: _225  and  _228
REMARK   94  A    between atoms: _228  and  _229
REMARK   95  A    between atoms: _234  and  _235
REMARK   96  A    between atoms: _237  and  _239
REMARK   97  A    between atoms: _239  and  _240
REMARK   98  A    between atoms: _239  and  _242
REMARK   99  A    between atoms: _242  and  _243
REMARK  100  A    between atoms: _248  and  _249
REMARK  101  A    between atoms: _251  and  _253
REMARK  102  A    between atoms: _253  and  _254
REMARK  103  A    between atoms: _253  and  _256
REMARK  104  A    between atoms: _256  and  _257
REMARK  105  A    between atoms: _257  and  _258
REMARK  106  A    between atoms: _258  and  _259
REMARK  107  A    between atoms: _268  and  _270
REMARK  108  A    between atoms: _270  and  _271
REMARK  109  A    between atoms: _270  and  _273
REMARK  110  A    between atoms: _273  and  _274
REMARK  111  A    between atoms: _279  and  _280
REMARK  112  A    between atoms: _282  and  _284
REMARK  113  A    between atoms: _284  and  _285
REMARK  114  A    between atoms: _284  and  _287
REMARK  115  A    between atoms: _287  and  _288
REMARK  116  A    between atoms: _291  and  _293
REMARK  117  A    between atoms: _293  and  _294
REMARK  118  A    between atoms: _293  and  _296
REMARK  119  A    between atoms: _296  and  _297
REMARK  120  A    between atoms: _307  and  _309
REMARK  121  A    between atoms: _309  and  _310
REMARK  122  A    between atoms: _309  and  _312
REMARK  123  A    between atoms: _312  and  _313
REMARK  124  A    between atoms: _316  and  _318
REMARK  125  A    between atoms: _318  and  _319
REMARK  126  A    between atoms: _318  and  _321
REMARK  127  A    between atoms: _321  and  _322
REMARK  128  A    between atoms: _322  and  _323
REMARK  129  A    between atoms: _326  and  _328
REMARK  130  A    between atoms: _328  and  _329
REMARK  131  A    between atoms: _328  and  _331
REMARK  132  A    between atoms: _331  and  _332
REMARK  133  A    between atoms: _334  and  _336
REMARK  134  A    between atoms: _336  and  _337
REMARK  135  A    between atoms: _336  and  _339
REMARK  136  A    between atoms: _339  and  _340
REMARK  137  A    between atoms: _343  and  _345
REMARK  138  A    between atoms: _345  and  _346
REMARK  139  A    between atoms: _348  and  _350
REMARK  140  A    between atoms: _350  and  _351
REMARK  141  A    between atoms: _350  and  _353
REMARK  142  A    between atoms: _353  and  _354
REMARK  143  A    between atoms: _364  and  _366
REMARK  144  A    between atoms: _366  and  _367
REMARK  145  A    between atoms: _366  and  _369
REMARK  146  A    between atoms: _369  and  _370
REMARK  147  A    between atoms: _370  and  _371
REMARK  148  A    between atoms: _371  and  _372
REMARK  149  A    between atoms: _381  and  _383
REMARK  150  A    between atoms: _383  and  _384
REMARK  151  A    between atoms: _383  and  _386
REMARK  152  A    between atoms: _386  and  _387
REMARK  153  A    between atoms: _387  and  _388
REMARK  154  A    between atoms: _388  and  _389
REMARK  155  A    between atoms: _389  and  _390
REMARK  156  A    between atoms: _394  and  _396
REMARK  157  A    between atoms: _396  and  _397
REMARK  158  A    between atoms: _396  and  _399
REMARK  159  A    between atoms: _399  and  _400
REMARK  160  A    between atoms: _400  and  _401
REMARK  161  A    between atoms: _406  and  _408
REMARK  162  A    between atoms: _408  and  _409
REMARK  163  A    between atoms: _408  and  _411
REMARK  164  A    between atoms: _411  and  _412
REMARK                            x       y       z     vdW  Elec       q    Type
REMARK                         _______ _______ _______ _____ _____    ______ ____
ROOT
ATOM      1  CA  ASP A   2      17.651  19.945  25.461  0.00  0.00    +0.160 C 
ENDROOT
BRANCH   1   3
ATOM      2  C   THR A   1      17.590  22.080  24.415  0.00  0.00    +0.241 C 
ATOM      3  N   ASP A   2      17.034  21.232  25.257  0.00  0.00    -0.297 N 
ATOM      4  H   ASP A   2      16.164  21.487  25.766  0.00  0.00    +0.150 HD
ATOM      5  O   THR A   1      18.619  21.818  23.834  0.00  0.00    -0.274 OA
BRANCH   2   6
ATOM      6  CA  THR A   1      16.904  23.426  24.233  0.00  0.00    +0.172 C 
BRANCH   6   7
ATOM      7  N   THR A   1      17.916  24.413  23.856  0.00  0.00    -0.236 NA
ATOM      8  H   THR A   1      18.442  24.305  22.965  0.00  0.00    +0.142 HD
ENDBRANCH   6   7
BRANCH   6   9
ATOM      9  CB  THR A   1      15.723  23.268  23.230  0.00  0.00    +0.135 C 
ATOM     10  CG2 THR A   1      15.111  24.599  22.871  0.00  0.00    +0.034 C 
BRANCH   9  11
ATOM     11  OG1 THR A   1      16.154  22.602  22.022  0.00  0.00    -0.383 OA
ATOM     12  HG1 THR A   1      16.501  21.703  22.248  0.00  0.00    +0.210 HD
ENDBRANCH   9  11
ENDBRANCH   6   9
ENDBRANCH   2   6
ENDBRANCH   1   3
BRANCH   1  13
ATOM     13  C   ASP A   2      16.652  18.978  26.082  0.00  0.00    +0.241 C 
ATOM     14  O   ASP A   2      15.707  19.382  26.713  0.00  0.00    -0.273 OA
ATOM     15  N   TYR A   3      16.866  17.718  25.830  0.00  0.00    -0.298 N 
ATOM     16  H   TYR A   3      17.603  17.448  25.147  0.00  0.00    +0.150 HD
BRANCH  15  17
ATOM     17  CA  TYR A   3      16.092  16.691  26.488  0.00  0.00    +0.141 C 
BRANCH  17  18
ATOM     18  C   TYR A   3      16.441  16.648  27.968  0.00  0.00    +0.227 C 
ATOM     19  O   TYR A   3      17.568  16.593  28.332  0.00  0.00    -0.286 OA
ENDBRANCH  17  18
BRANCH  17  20
ATOM     20  CB  TYR A   3      16.401  15.327  25.865  0.00  0.00    +0.054 C 
BRANCH  20  21
ATOM     21  CG  TYR A   3      15.838  15.041  24.461  0.00  0.00    -0.020 A 
ATOM     22  CD2 TYR A   3      15.768  13.727  24.040  0.00  0.00    -0.001 A 
ATOM     23  CE2 TYR A   3      15.254  13.417  22.790  0.00  0.00    +0.036 A 
ATOM     24  CZ  TYR A   3      14.854  14.412  21.965  0.00  0.00    +0.134 A 
ATOM     25  CE1 TYR A   3      14.884  15.719  22.335  0.00  0.00    +0.036 A 
ATOM     26  CD1 TYR A   3      15.402  16.045  23.579  0.00  0.00    -0.001 A 
BRANCH  24  27
ATOM     27  OH  TYR A   3      14.332  14.133  20.723  0.00  0.00    -0.506 OA
ATOM     28  HH  TYR A   3      13.520  13.576  20.825  0.00  0.00    +0.292 HD
ENDBRANCH  24  27
ENDBRANCH  20  21
ENDBRANCH  17  20
ENDBRANCH  15  17
ENDBRANCH   1  13
BRANCH   1  29
ATOM     29  CB  ASP A   2      18.860  20.064  26.409  0.00  0.00    +0.143 C 
BRANCH  29  30
ATOM     30  CG  ASP A   2      19.956  19.037  26.132  0.00  0.00    +0.367 C 
ATOM     31  OD2 ASP A   2      20.967  19.140  26.786  0.00  0.00    -0.246 OA
ATOM     32  OD1 ASP A   2      19.801  18.158  25.297  0.00  0.00    -0.246 OA
ENDBRANCH  29  30
ENDBRANCH   1  29
TORSDOF 13
REMARK  Name = ../refined-set-2016/3uj9/3uj9_pocket.pdb
REMARK  164 active torsions:
REMARK  status: ('A' for Active; 'I' for Inactive)
REMARK    1  A    between atoms: _1  and  _3
REMARK    2  A    between atoms: _3  and  _4
REMARK    3  A    between atoms: _3  and  _6
REMARK    4  A    between atoms: _6  and  _7
REMARK    5  A    between atoms: _7  and  _8
REMARK    6  A    between atoms: _13  and  _15
REMARK    7  A    between atoms: _15  and  _16
REMARK    8  A    between atoms: _15  and  _18
REMARK    9  A    between atoms: _18  and  _19
REMARK   10  A    between atoms: _24  and  _25
REMARK   11  A    between atoms: _27  and  _29
REMARK   12  A    between atoms: _29  and  _30
REMARK   13  A    between atoms: _32  and  _34
REMARK   14  A    between atoms: _34  and  _35
REMARK   15  A    between atoms: _34  and  _37
REMARK   16  A    between atoms: _37  and  _38
REMARK   17  A    between atoms: _43  and  _44
REMARK   18  A    between atoms: _46  and  _48
REMARK   19  A    between atoms: _48  and  _49
REMARK   20  A    between atoms: _48  and  _51
REMARK   21  A    between atoms: _51  and  _52
REMARK   22  A    between atoms: _55  and  _57
REMARK   23  A    between atoms: _57  and  _58
REMARK   24  A    between atoms: _57  and  _60
REMARK   25  A    between atoms: _60  and  _61
REMARK   26  A    between atoms: _67  and  _69
REMARK   27  A    between atoms: _69  and  _70
REMARK   28  A    between atoms: _69  and  _72
REMARK   29  A    between atoms: _72  and  _73
REMARK   30  A    between atoms: _78  and  _79
REMARK   31  A    between atoms: _81  and  _83
REMARK   32  A    between atoms: _83  and  _84
REMARK   33  A    between atoms: _83  and  _86
REMARK   34  A    between atoms: _86  and  _87
REMARK   35  A    between atoms: _90  and  _92
REMARK   36  A    between atoms: _92  and  _93
REMARK   37  A    between atoms: _92  and  _95
REMARK   38  A    between atoms: _95  and  _96
REMARK   39  A    between atoms: _98  and  _100
REMARK   40  A    between atoms: _100  and  _101
REMARK   41  A    between atoms: _100  and  _103
REMARK   42  A    between atoms: _103  and  _104
REMARK   43  A    between atoms: _106  and  _108
REMARK   44  A    between atoms: _108  and  _109
REMARK   45  A    between atoms: _111  and  _113
REMARK   46  A    between atoms: _113  and  _114
REMARK   47  A    between atoms: _116  and  _118
REMARK   48  A    between atoms: _118  and  _119
REMARK   49  A    between atoms: _121  and  _123
REMARK   50  A    between atoms: _123  and  _124
REMARK   51  A    between atoms: _126  and  _128
REMARK   52  A    between atoms: _128  and  _129
REMARK   53  A    between atoms: _128  and  _131
REMARK   54  A    between atoms: _131  and  _132
REMARK   55  A    between atoms: _135  and  _137
REMARK   56  A    between atoms: _137  and  _138
REMARK   57  A    between atoms: _137  and  _140
REMARK   58  A    between atoms: _140  and  _141
REMARK   59  A    between atoms: _144  and  _146
REMARK   60  A    between atoms: _146  and  _147
REMARK   61  A    between atoms: _146  and  _149
REMARK   62  A    between atoms: _149  and  _150
REMARK   63  A    between atoms: _150  and  _151
REMARK   64  A    between atoms: _151  and  _152
REMARK   65  A    between atoms: _161  and  _163
REMARK   66  A    between atoms: _163  and  _164
REMARK   67  A    between atoms: _163  and  _166
REMARK   68  A    between atoms: _166  and  _167
REMARK   69  A    between atoms: _170  and  _172
REMARK   70  A    between atoms: _172  and  _173
REMARK   71  A    between atoms: _176  and  _178
REMARK   72  A    between atoms: _178  and  _179
REMARK   73  A    between atoms: _178  and  _181
REMARK   74  A    between atoms: _181  and  _182
REMARK   75  A    between atoms: _185  and  _187
REMARK   76  A    between atoms: _187  and  _188
REMARK   77  A    between atoms: _187  and  _190
REMARK   78  A    between atoms: _190  and  _191
REMARK   79  A    between atoms: _194  and  _196
REMARK   80  A    between atoms: _196  and  _197
REMARK   81  A    between atoms: _196  and  _199
REMARK   82  A    between atoms: _199  and  _200
REMARK   83  A    between atoms: _205  and  _207
REMARK   84  A    between atoms: _207  and  _208
REMARK   85  A    between atoms: _207  and  _210
REMARK   86  A    between atoms: _210  and  _211
REMARK   87  A    between atoms: _214  and  _216
REMARK   88  A    between atoms: _216  and  _217
REMARK   89  A    between atoms: _216  and  _219
REMARK   90  A    between atoms: _219  and  _220
REMARK   91  A    between atoms: _223  and  _225
REMARK   92  A    between atoms: _225  and  _226
REMARK   93  A    between atoms: _225  and  _228
REMARK   94  A    between atoms: _228  and  _229
REMARK   95  A    between atoms: _234  and  _235
REMARK   96  A    between atoms: _237  and  _239
REMARK   97  A    between atoms: _239  and  _240
REMARK   98  A    between atoms: _239  and  _242
REMARK   99  A    between atoms: _242  and  _243
REMARK  100  A    between atoms: _248  and  _249
REMARK  101  A    between atoms: _251  and  _253
REMARK  102  A    between atoms: _253  and  _254
REMARK  103  A    between atoms: _253  and  _256
REMARK  104  A    between atoms: _256  and  _257
REMARK  105  A    between atoms: _257  and  _258
REMARK  106  A    between atoms: _258  and  _259
REMARK  107  A    between atoms: _268  and  _270
REMARK  108  A    between atoms: _270  and  _271
REMARK  109  A    between atoms: _270  and  _273
REMARK  110  A    between atoms: _273  and  _274
REMARK  111  A    between atoms: _279  and  _280
REMARK  112  A    between atoms: _282  and  _284
REMARK  113  A    between atoms: _284  and  _285
REMARK  114  A    between atoms: _284  and  _287
REMARK  115  A    between atoms: _287  and  _288
REMARK  116  A    between atoms: _291  and  _293
REMARK  117  A    between atoms: _293  and  _294
REMARK  118  A    between atoms: _293  and  _296
REMARK  119  A    between atoms: _296  and  _297
REMARK  120  A    between atoms: _307  and  _309
REMARK  121  A    between atoms: _309  and  _310
REMARK  122  A    between atoms: _309  and  _312
REMARK  123  A    between atoms: _312  and  _313
REMARK  124  A    between atoms: _316  and  _318
REMARK  125  A    between atoms: _318  and  _319
REMARK  126  A    between atoms: _318  and  _321
REMARK  127  A    between atoms: _321  and  _322
REMARK  128  A    between atoms: _322  and  _323
REMARK  129  A    between atoms: _326  and  _328
REMARK  130  A    between atoms: _328  and  _329
REMARK  131  A    between atoms: _328  and  _331
REMARK  132  A    between atoms: _331  and  _332
REMARK  133  A    between atoms: _334  and  _336
REMARK  134  A    between atoms: _336  and  _337
REMARK  135  A    between atoms: _336  and  _339
REMARK  136  A    between atoms: _339  and  _340
REMARK  137  A    between atoms: _343  and  _345
REMARK  138  A    between atoms: _345  and  _346
REMARK  139  A    between atoms: _348  and  _350
REMARK  140  A    between atoms: _350  and  _351
REMARK  141  A    between atoms: _350  and  _353
REMARK  142  A    between atoms: _353  and  _354
REMARK  143  A    between atoms: _364  and  _366
REMARK  144  A    between atoms: _366  and  _367
REMARK  145  A    between atoms: _366  and  _369
REMARK  146  A    between atoms: _369  and  _370
REMARK  147  A    between atoms: _370  and  _371
REMARK  148  A    between atoms: _371  and  _372
REMARK  149  A    between atoms: _381  and  _383
REMARK  150  A    between atoms: _383  and  _384
REMARK  151  A    between atoms: _383  and  _386
REMARK  152  A    between atoms: _386  and  _387
REMARK  153  A    between atoms: _387  and  _388
REMARK  154  A    between atoms: _388  and  _389
REMARK  155  A    between atoms: _389  and  _390
REMARK  156  A    between atoms: _394  and  _396
REMARK  157  A    between atoms: _396  and  _397
REMARK  158  A    between atoms: _396  and  _399
REMARK  159  A    between atoms: _399  and  _400
REMARK  160  A    between atoms: _400  and  _401
REMARK  161  A    between atoms: _406  and  _408
REMARK  162  A    between atoms: _408  and  _409
REMARK  163  A    between atoms: _408  and  _411
REMARK  164  A    between atoms: _411  and  _412
REMARK                            x       y       z     vdW  Elec       q    Type
REMARK                         _______ _______ _______ _____ _____    ______ ____
ROOT
ATOM      1  CG  TYR A   1      14.574   6.478  25.410  0.00  0.00    -0.020 A 
ATOM      2  CD2 TYR A   1      14.629   7.669  26.109  0.00  0.00    -0.001 A 
ATOM      3  CE2 TYR A   1      14.727   8.872  25.445  0.00  0.00    +0.036 A 
ATOM      4  CZ  TYR A   1      14.744   8.912  24.054  0.00  0.00    +0.134 A 
ATOM      5  CE1 TYR A   1      14.741   7.762  23.366  0.00  0.00    +0.036 A 
ATOM      6  CD1 TYR A   1      14.624   6.552  24.007  0.00  0.00    -0.001 A 
ENDROOT
BRANCH   4   7
ATOM      7  OH  TYR A   1      14.805  10.134  23.501  0.00  0.00    -0.506 OA
ATOM      8  HH  TYR A   1      14.812  10.049  22.515  0.00  0.00    +0.292 HD
ENDBRANCH   4   7
BRANCH   1   9
ATOM      9  CB  TYR A   1      14.410   5.128  26.146  0.00  0.00    +0.051 C 
BRANCH   9  10
ATOM     10  CA  TYR A   1      15.640   4.230  26.223  0.00  0.00    +0.137 C 
BRANCH  10  11
ATOM     11  N   TYR A   1      15.436   3.217  27.284  0.00  0.00    -0.239 NA
ATOM     12  H   TYR A   1      14.561   3.244  27.846  0.00  0.00    +0.142 HD
ENDBRANCH  10  11
BRANCH  10  13
ATOM     13  C   TYR A   1      16.878   5.053  26.558  0.00  0.00    +0.224 C 
ATOM     14  O   TYR A   1      17.743   5.256  25.750  0.00  0.00    -0.287 OA
ENDBRANCH  10  13
ENDBRANCH   9  10
ENDBRANCH   1   9
TORSDOF 5
REMARK  Name = ../refined-set-2016/3uj9/3uj9_pocket.pdb
REMARK  164 active torsions:
REMARK  status: ('A' for Active; 'I' for Inactive)
REMARK    1  A    between atoms: _1  and  _3
REMARK    2  A    between atoms: _3  and  _4
REMARK    3  A    between atoms: _3  and  _6
REMARK    4  A    between atoms: _6  and  _7
REMARK    5  A    between atoms: _7  and  _8
REMARK    6  A    between atoms: _13  and  _15
REMARK    7  A    between atoms: _15  and  _16
REMARK    8  A    between atoms: _15  and  _18
REMARK    9  A    between atoms: _18  and  _19
REMARK   10  A    between atoms: _24  and  _25
REMARK   11  A    between atoms: _27  and  _29
REMARK   12  A    between atoms: _29  and  _30
REMARK   13  A    between atoms: _32  and  _34
REMARK   14  A    between atoms: _34  and  _35
REMARK   15  A    between atoms: _34  and  _37
REMARK   16  A    between atoms: _37  and  _38
REMARK   17  A    between atoms: _43  and  _44
REMARK   18  A    between atoms: _46  and  _48
REMARK   19  A    between atoms: _48  and  _49
REMARK   20  A    between atoms: _48  and  _51
REMARK   21  A    between atoms: _51  and  _52
REMARK   22  A    between atoms: _55  and  _57
REMARK   23  A    between atoms: _57  and  _58
REMARK   24  A    between atoms: _57  and  _60
REMARK   25  A    between atoms: _60  and  _61
REMARK   26  A    between atoms: _67  and  _69
REMARK   27  A    between atoms: _69  and  _70
REMARK   28  A    between atoms: _69  and  _72
REMARK   29  A    between atoms: _72  and  _73
REMARK   30  A    between atoms: _78  and  _79
REMARK   31  A    between atoms: _81  and  _83
REMARK   32  A    between atoms: _83  and  _84
REMARK   33  A    between atoms: _83  and  _86
REMARK   34  A    between atoms: _86  and  _87
REMARK   35  A    between atoms: _90  and  _92
REMARK   36  A    between atoms: _92  and  _93
REMARK   37  A    between atoms: _92  and  _95
REMARK   38  A    between atoms: _95  and  _96
REMARK   39  A    between atoms: _98  and  _100
REMARK   40  A    between atoms: _100  and  _101
REMARK   41  A    between atoms: _100  and  _103
REMARK   42  A    between atoms: _103  and  _104
REMARK   43  A    between atoms: _106  and  _108
REMARK   44  A    between atoms: _108  and  _109
REMARK   45  A    between atoms: _111  and  _113
REMARK   46  A    between atoms: _113  and  _114
REMARK   47  A    between atoms: _116  and  _118
REMARK   48  A    between atoms: _118  and  _119
REMARK   49  A    between atoms: _121  and  _123
REMARK   50  A    between atoms: _123  and  _124
REMARK   51  A    between atoms: _126  and  _128
REMARK   52  A    between atoms: _128  and  _129
REMARK   53  A    between atoms: _128  and  _131
REMARK   54  A    between atoms: _131  and  _132
REMARK   55  A    between atoms: _135  and  _137
REMARK   56  A    between atoms: _137  and  _138
REMARK   57  A    between atoms: _137  and  _140
REMARK   58  A    between atoms: _140  and  _141
REMARK   59  A    between atoms: _144  and  _146
REMARK   60  A    between atoms: _146  and  _147
REMARK   61  A    between atoms: _146  and  _149
REMARK   62  A    between atoms: _149  and  _150
REMARK   63  A    between atoms: _150  and  _151
REMARK   64  A    between atoms: _151  and  _152
REMARK   65  A    between atoms: _161  and  _163
REMARK   66  A    between atoms: _163  and  _164
REMARK   67  A    between atoms: _163  and  _166
REMARK   68  A    between atoms: _166  and  _167
REMARK   69  A    between atoms: _170  and  _172
REMARK   70  A    between atoms: _172  and  _173
REMARK   71  A    between atoms: _176  and  _178
REMARK   72  A    between atoms: _178  and  _179
REMARK   73  A    between atoms: _178  and  _181
REMARK   74  A    between atoms: _181  and  _182
REMARK   75  A    between atoms: _185  and  _187
REMARK   76  A    between atoms: _187  and  _188
REMARK   77  A    between atoms: _187  and  _190
REMARK   78  A    between atoms: _190  and  _191
REMARK   79  A    between atoms: _194  and  _196
REMARK   80  A    between atoms: _196  and  _197
REMARK   81  A    between atoms: _196  and  _199
REMARK   82  A    between atoms: _199  and  _200
REMARK   83  A    between atoms: _205  and  _207
REMARK   84  A    between atoms: _207  and  _208
REMARK   85  A    between atoms: _207  and  _210
REMARK   86  A    between atoms: _210  and  _211
REMARK   87  A    between atoms: _214  and  _216
REMARK   88  A    between atoms: _216  and  _217
REMARK   89  A    between atoms: _216  and  _219
REMARK   90  A    between atoms: _219  and  _220
REMARK   91  A    between atoms: _223  and  _225
REMARK   92  A    between atoms: _225  and  _226
REMARK   93  A    between atoms: _225  and  _228
REMARK   94  A    between atoms: _228  and  _229
REMARK   95  A    between atoms: _234  and  _235
REMARK   96  A    between atoms: _237  and  _239
REMARK   97  A    between atoms: _239  and  _240
REMARK   98  A    between atoms: _239  and  _242
REMARK   99  A    between atoms: _242  and  _243
REMARK  100  A    between atoms: _248  and  _249
REMARK  101  A    between atoms: _251  and  _253
REMARK  102  A    between atoms: _253  and  _254
REMARK  103  A    between atoms: _253  and  _256
REMARK  104  A    between atoms: _256  and  _257
REMARK  105  A    between atoms: _257  and  _258
REMARK  106  A    between atoms: _258  and  _259
REMARK  107  A    between atoms: _268  and  _270
REMARK  108  A    between atoms: _270  and  _271
REMARK  109  A    between atoms: _270  and  _273
REMARK  110  A    between atoms: _273  and  _274
REMARK  111  A    between atoms: _279  and  _280
REMARK  112  A    between atoms: _282  and  _284
REMARK  113  A    between atoms: _284  and  _285
REMARK  114  A    between atoms: _284  and  _287
REMARK  115  A    between atoms: _287  and  _288
REMARK  116  A    between atoms: _291  and  _293
REMARK  117  A    between atoms: _293  and  _294
REMARK  118  A    between atoms: _293  and  _296
REMARK  119  A    between atoms: _296  and  _297
REMARK  120  A    between atoms: _307  and  _309
REMARK  121  A    between atoms: _309  and  _310
REMARK  122  A    between atoms: _309  and  _312
REMARK  123  A    between atoms: _312  and  _313
REMARK  124  A    between atoms: _316  and  _318
REMARK  125  A    between atoms: _318  and  _319
REMARK  126  A    between atoms: _318  and  _321
REMARK  127  A    between atoms: _321  and  _322
REMARK  128  A    between atoms: _322  and  _323
REMARK  129  A    between atoms: _326  and  _328
REMARK  130  A    between atoms: _328  and  _329
REMARK  131  A    between atoms: _328  and  _331
REMARK  132  A    between atoms: _331  and  _332
REMARK  133  A    between atoms: _334  and  _336
REMARK  134  A    between atoms: _336  and  _337
REMARK  135  A    between atoms: _336  and  _339
REMARK  136  A    between atoms: _339  and  _340
REMARK  137  A    between atoms: _343  and  _345
REMARK  138  A    between atoms: _345  and  _346
REMARK  139  A    between atoms: _348  and  _350
REMARK  140  A    between atoms: _350  and  _351
REMARK  141  A    between atoms: _350  and  _353
REMARK  142  A    between atoms: _353  and  _354
REMARK  143  A    between atoms: _364  and  _366
REMARK  144  A    between atoms: _366  and  _367
REMARK  145  A    between atoms: _366  and  _369
REMARK  146  A    between atoms: _369  and  _370
REMARK  147  A    between atoms: _370  and  _371
REMARK  148  A    between atoms: _371  and  _372
REMARK  149  A    between atoms: _381  and  _383
REMARK  150  A    between atoms: _383  and  _384
REMARK  151  A    between atoms: _383  and  _386
REMARK  152  A    between atoms: _386  and  _387
REMARK  153  A    between atoms: _387  and  _388
REMARK  154  A    between atoms: _388  and  _389
REMARK  155  A    between atoms: _389  and  _390
REMARK  156  A    between atoms: _394  and  _396
REMARK  157  A    between atoms: _396  and  _397
REMARK  158  A    between atoms: _396  and  _399
REMARK  159  A    between atoms: _399  and  _400
REMARK  160  A    between atoms: _400  and  _401
REMARK  161  A    between atoms: _406  and  _408
REMARK  162  A    between atoms: _408  and  _409
REMARK  163  A    between atoms: _408  and  _411
REMARK  164  A    between atoms: _411  and  _412
REMARK                            x       y       z     vdW  Elec       q    Type
REMARK                         _______ _______ _______ _____ _____    ______ ____
ROOT
ATOM      1  NE  ARG A   1      17.463   7.457  20.879  0.00  0.00    -0.265 N 
ATOM      2  HE  ARG A   1      17.136   8.435  20.745  0.00  0.00    +0.259 HD
ATOM      3  CZ  ARG A   1      16.695   6.504  20.402  0.00  0.00    +0.342 C 
ATOM      4  NH2 ARG A   1      17.050   5.259  20.472  0.00  0.00    -0.292 N 
ATOM      5 HH21 ARG A   1      17.956   5.001  20.912  0.00  0.00    +0.255 HD
ATOM      6 HH22 ARG A   1      16.428   4.519  20.089  0.00  0.00    +0.255 HD
ATOM      7  NH1 ARG A   1      15.587   6.842  19.826  0.00  0.00    -0.292 N 
ATOM      8 HH11 ARG A   1      15.325   7.846  19.750  0.00  0.00    +0.255 HD
ATOM      9 HH12 ARG A   1      14.958   6.110  19.439  0.00  0.00    +0.255 HD
ENDROOT
BRANCH   1  10
ATOM     10  CD  ARG A   1      18.725   7.276  21.575  0.00  0.00    +0.174 C 
BRANCH  10  11
ATOM     11  CG  ARG A   1      18.562   6.927  23.084  0.00  0.00    +0.045 C 
BRANCH  11  12
ATOM     12  CB  ARG A   1      19.835   7.163  23.896  0.00  0.00    +0.029 C 
BRANCH  12  13
ATOM     13  CA  ARG A   1      20.883   6.065  23.709  0.00  0.00    +0.133 C 
BRANCH  13  14
ATOM     14  N   ARG A   1      20.446   4.855  24.371  0.00  0.00    -0.239 NA
ATOM     15  H   ARG A   1      19.690   4.914  25.083  0.00  0.00    +0.142 HD
ENDBRANCH  13  14
BRANCH  13  16
ATOM     16  C   ARG A   1      22.185   6.559  24.289  0.00  0.00    +0.224 C 
ATOM     17  O   ARG A   1      22.820   7.366  23.687  0.00  0.00    -0.287 OA
ENDBRANCH  13  16
ENDBRANCH  12  13
ENDBRANCH  11  12
ENDBRANCH  10  11
ENDBRANCH   1  10
TORSDOF 6
REMARK  Name = ../refined-set-2016/3uj9/3uj9_pocket.pdb
REMARK  164 active torsions:
REMARK  status: ('A' for Active; 'I' for Inactive)
REMARK    1  A    between atoms: _1  and  _3
REMARK    2  A    between atoms: _3  and  _4
REMARK    3  A    between atoms: _3  and  _6
REMARK    4  A    between atoms: _6  and  _7
REMARK    5  A    between atoms: _7  and  _8
REMARK    6  A    between atoms: _13  and  _15
REMARK    7  A    between atoms: _15  and  _16
REMARK    8  A    between atoms: _15  and  _18
REMARK    9  A    between atoms: _18  and  _19
REMARK   10  A    between atoms: _24  and  _25
REMARK   11  A    between atoms: _27  and  _29
REMARK   12  A    between atoms: _29  and  _30
REMARK   13  A    between atoms: _32  and  _34
REMARK   14  A    between atoms: _34  and  _35
REMARK   15  A    between atoms: _34  and  _37
REMARK   16  A    between atoms: _37  and  _38
REMARK   17  A    between atoms: _43  and  _44
REMARK   18  A    between atoms: _46  and  _48
REMARK   19  A    between atoms: _48  and  _49
REMARK   20  A    between atoms: _48  and  _51
REMARK   21  A    between atoms: _51  and  _52
REMARK   22  A    between atoms: _55  and  _57
REMARK   23  A    between atoms: _57  and  _58
REMARK   24  A    between atoms: _57  and  _60
REMARK   25  A    between atoms: _60  and  _61
REMARK   26  A    between atoms: _67  and  _69
REMARK   27  A    between atoms: _69  and  _70
REMARK   28  A    between atoms: _69  and  _72
REMARK   29  A    between atoms: _72  and  _73
REMARK   30  A    between atoms: _78  and  _79
REMARK   31  A    between atoms: _81  and  _83
REMARK   32  A    between atoms: _83  and  _84
REMARK   33  A    between atoms: _83  and  _86
REMARK   34  A    between atoms: _86  and  _87
REMARK   35  A    between atoms: _90  and  _92
REMARK   36  A    between atoms: _92  and  _93
REMARK   37  A    between atoms: _92  and  _95
REMARK   38  A    between atoms: _95  and  _96
REMARK   39  A    between atoms: _98  and  _100
REMARK   40  A    between atoms: _100  and  _101
REMARK   41  A    between atoms: _100  and  _103
REMARK   42  A    between atoms: _103  and  _104
REMARK   43  A    between atoms: _106  and  _108
REMARK   44  A    between atoms: _108  and  _109
REMARK   45  A    between atoms: _111  and  _113
REMARK   46  A    between atoms: _113  and  _114
REMARK   47  A    between atoms: _116  and  _118
REMARK   48  A    between atoms: _118  and  _119
REMARK   49  A    between atoms: _121  and  _123
REMARK   50  A    between atoms: _123  and  _124
REMARK   51  A    between atoms: _126  and  _128
REMARK   52  A    between atoms: _128  and  _129
REMARK   53  A    between atoms: _128  and  _131
REMARK   54  A    between atoms: _131  and  _132
REMARK   55  A    between atoms: _135  and  _137
REMARK   56  A    between atoms: _137  and  _138
REMARK   57  A    between atoms: _137  and  _140
REMARK   58  A    between atoms: _140  and  _141
REMARK   59  A    between atoms: _144  and  _146
REMARK   60  A    between atoms: _146  and  _147
REMARK   61  A    between atoms: _146  and  _149
REMARK   62  A    between atoms: _149  and  _150
REMARK   63  A    between atoms: _150  and  _151
REMARK   64  A    between atoms: _151  and  _152
REMARK   65  A    between atoms: _161  and  _163
REMARK   66  A    between atoms: _163  and  _164
REMARK   67  A    between atoms: _163  and  _166
REMARK   68  A    between atoms: _166  and  _167
REMARK   69  A    between atoms: _170  and  _172
REMARK   70  A    between atoms: _172  and  _173
REMARK   71  A    between atoms: _176  and  _178
REMARK   72  A    between atoms: _178  and  _179
REMARK   73  A    between atoms: _178  and  _181
REMARK   74  A    between atoms: _181  and  _182
REMARK   75  A    between atoms: _185  and  _187
REMARK   76  A    between atoms: _187  and  _188
REMARK   77  A    between atoms: _187  and  _190
REMARK   78  A    between atoms: _190  and  _191
REMARK   79  A    between atoms: _194  and  _196
REMARK   80  A    between atoms: _196  and  _197
REMARK   81  A    between atoms: _196  and  _199
REMARK   82  A    between atoms: _199  and  _200
REMARK   83  A    between atoms: _205  and  _207
REMARK   84  A    between atoms: _207  and  _208
REMARK   85  A    between atoms: _207  and  _210
REMARK   86  A    between atoms: _210  and  _211
REMARK   87  A    between atoms: _214  and  _216
REMARK   88  A    between atoms: _216  and  _217
REMARK   89  A    between atoms: _216  and  _219
REMARK   90  A    between atoms: _219  and  _220
REMARK   91  A    between atoms: _223  and  _225
REMARK   92  A    between atoms: _225  and  _226
REMARK   93  A    between atoms: _225  and  _228
REMARK   94  A    between atoms: _228  and  _229
REMARK   95  A    between atoms: _234  and  _235
REMARK   96  A    between atoms: _237  and  _239
REMARK   97  A    between atoms: _239  and  _240
REMARK   98  A    between atoms: _239  and  _242
REMARK   99  A    between atoms: _242  and  _243
REMARK  100  A    between atoms: _248  and  _249
REMARK  101  A    between atoms: _251  and  _253
REMARK  102  A    between atoms: _253  and  _254
REMARK  103  A    between atoms: _253  and  _256
REMARK  104  A    between atoms: _256  and  _257
REMARK  105  A    between atoms: _257  and  _258
REMARK  106  A    between atoms: _258  and  _259
REMARK  107  A    between atoms: _268  and  _270
REMARK  108  A    between atoms: _270  and  _271
REMARK  109  A    between atoms: _270  and  _273
REMARK  110  A    between atoms: _273  and  _274
REMARK  111  A    between atoms: _279  and  _280
REMARK  112  A    between atoms: _282  and  _284
REMARK  113  A    between atoms: _284  and  _285
REMARK  114  A    between atoms: _284  and  _287
REMARK  115  A    between atoms: _287  and  _288
REMARK  116  A    between atoms: _291  and  _293
REMARK  117  A    between atoms: _293  and  _294
REMARK  118  A    between atoms: _293  and  _296
REMARK  119  A    between atoms: _296  and  _297
REMARK  120  A    between atoms: _307  and  _309
REMARK  121  A    between atoms: _309  and  _310
REMARK  122  A    between atoms: _309  and  _312
REMARK  123  A    between atoms: _312  and  _313
REMARK  124  A    between atoms: _316  and  _318
REMARK  125  A    between atoms: _318  and  _319
REMARK  126  A    between atoms: _318  and  _321
REMARK  127  A    between atoms: _321  and  _322
REMARK  128  A    between atoms: _322  and  _323
REMARK  129  A    between atoms: _326  and  _328
REMARK  130  A    between atoms: _328  and  _329
REMARK  131  A    between atoms: _328  and  _331
REMARK  132  A    between atoms: _331  and  _332
REMARK  133  A    between atoms: _334  and  _336
REMARK  134  A    between atoms: _336  and  _337
REMARK  135  A    between atoms: _336  and  _339
REMARK  136  A    between atoms: _339  and  _340
REMARK  137  A    between atoms: _343  and  _345
REMARK  138  A    between atoms: _345  and  _346
REMARK  139  A    between atoms: _348  and  _350
REMARK  140  A    between atoms: _350  and  _351
REMARK  141  A    between atoms: _350  and  _353
REMARK  142  A    between atoms: _353  and  _354
REMARK  143  A    between atoms: _364  and  _366
REMARK  144  A    between atoms: _366  and  _367
REMARK  145  A    between atoms: _366  and  _369
REMARK  146  A    between atoms: _369  and  _370
REMARK  147  A    between atoms: _370  and  _371
REMARK  148  A    between atoms: _371  and  _372
REMARK  149  A    between atoms: _381  and  _383
REMARK  150  A    between atoms: _383  and  _384
REMARK  151  A    between atoms: _383  and  _386
REMARK  152  A    between atoms: _386  and  _387
REMARK  153  A    between atoms: _387  and  _388
REMARK  154  A    between atoms: _388  and  _389
REMARK  155  A    between atoms: _389  and  _390
REMARK  156  A    between atoms: _394  and  _396
REMARK  157  A    between atoms: _396  and  _397
REMARK  158  A    between atoms: _396  and  _399
REMARK  159  A    between atoms: _399  and  _400
REMARK  160  A    between atoms: _400  and  _401
REMARK  161  A    between atoms: _406  and  _408
REMARK  162  A    between atoms: _408  and  _409
REMARK  163  A    between atoms: _408  and  _411
REMARK  164  A    between atoms: _411  and  _412
REMARK                            x       y       z     vdW  Elec       q    Type
REMARK                         _______ _______ _______ _____ _____    ______ ____
ROOT
ATOM      1  CG  TYR A   1      20.028  10.356  25.542  0.00  0.00    -0.020 A 
ATOM      2  CD2 TYR A   1      18.668  10.229  25.311  0.00  0.00    -0.001 A 
ATOM      3  CE2 TYR A   1      18.159  10.358  24.067  0.00  0.00    +0.036 A 
ATOM      4  CZ  TYR A   1      18.999  10.638  23.010  0.00  0.00    +0.134 A 
ATOM      5  CE1 TYR A   1      20.333  10.763  23.184  0.00  0.00    +0.036 A 
ATOM      6  CD1 TYR A   1      20.868  10.639  24.449  0.00  0.00    -0.001 A 
ENDROOT
BRANCH   4   7
ATOM      7  OH  TYR A   1      18.489  10.806  21.717  0.00  0.00    -0.506 OA
ATOM      8  HH  TYR A   1      18.027   9.977  21.435  0.00  0.00    +0.292 HD
ENDBRANCH   4   7
BRANCH   1   9
ATOM      9  CB  TYR A   1      20.536  10.266  26.972  0.00  0.00    +0.051 C 
BRANCH   9  10
ATOM     10  CA  TYR A   1      21.994   9.964  27.226  0.00  0.00    +0.137 C 
BRANCH  10  11
ATOM     11  N   TYR A   1      22.251   8.586  26.804  0.00  0.00    -0.239 NA
ATOM     12  H   TYR A   1      21.447   7.943  26.656  0.00  0.00    +0.142 HD
ENDBRANCH  10  11
BRANCH  10  13
ATOM     13  C   TYR A   1      22.271  10.147  28.708  0.00  0.00    +0.224 C 
ATOM     14  O   TYR A   1      22.163   9.239  29.466  0.00  0.00    -0.287 OA
ENDBRANCH  10  13
ENDBRANCH   9  10
ENDBRANCH   1   9
TORSDOF 5
REMARK  Name = ../refined-set-2016/3uj9/3uj9_pocket.pdb
REMARK  164 active torsions:
REMARK  status: ('A' for Active; 'I' for Inactive)
REMARK    1  A    between atoms: _1  and  _3
REMARK    2  A    between atoms: _3  and  _4
REMARK    3  A    between atoms: _3  and  _6
REMARK    4  A    between atoms: _6  and  _7
REMARK    5  A    between atoms: _7  and  _8
REMARK    6  A    between atoms: _13  and  _15
REMARK    7  A    between atoms: _15  and  _16
REMARK    8  A    between atoms: _15  and  _18
REMARK    9  A    between atoms: _18  and  _19
REMARK   10  A    between atoms: _24  and  _25
REMARK   11  A    between atoms: _27  and  _29
REMARK   12  A    between atoms: _29  and  _30
REMARK   13  A    between atoms: _32  and  _34
REMARK   14  A    between atoms: _34  and  _35
REMARK   15  A    between atoms: _34  and  _37
REMARK   16  A    between atoms: _37  and  _38
REMARK   17  A    between atoms: _43  and  _44
REMARK   18  A    between atoms: _46  and  _48
REMARK   19  A    between atoms: _48  and  _49
REMARK   20  A    between atoms: _48  and  _51
REMARK   21  A    between atoms: _51  and  _52
REMARK   22  A    between atoms: _55  and  _57
REMARK   23  A    between atoms: _57  and  _58
REMARK   24  A    between atoms: _57  and  _60
REMARK   25  A    between atoms: _60  and  _61
REMARK   26  A    between atoms: _67  and  _69
REMARK   27  A    between atoms: _69  and  _70
REMARK   28  A    between atoms: _69  and  _72
REMARK   29  A    between atoms: _72  and  _73
REMARK   30  A    between atoms: _78  and  _79
REMARK   31  A    between atoms: _81  and  _83
REMARK   32  A    between atoms: _83  and  _84
REMARK   33  A    between atoms: _83  and  _86
REMARK   34  A    between atoms: _86  and  _87
REMARK   35  A    between atoms: _90  and  _92
REMARK   36  A    between atoms: _92  and  _93
REMARK   37  A    between atoms: _92  and  _95
REMARK   38  A    between atoms: _95  and  _96
REMARK   39  A    between atoms: _98  and  _100
REMARK   40  A    between atoms: _100  and  _101
REMARK   41  A    between atoms: _100  and  _103
REMARK   42  A    between atoms: _103  and  _104
REMARK   43  A    between atoms: _106  and  _108
REMARK   44  A    between atoms: _108  and  _109
REMARK   45  A    between atoms: _111  and  _113
REMARK   46  A    between atoms: _113  and  _114
REMARK   47  A    between atoms: _116  and  _118
REMARK   48  A    between atoms: _118  and  _119
REMARK   49  A    between atoms: _121  and  _123
REMARK   50  A    between atoms: _123  and  _124
REMARK   51  A    between atoms: _126  and  _128
REMARK   52  A    between atoms: _128  and  _129
REMARK   53  A    between atoms: _128  and  _131
REMARK   54  A    between atoms: _131  and  _132
REMARK   55  A    between atoms: _135  and  _137
REMARK   56  A    between atoms: _137  and  _138
REMARK   57  A    between atoms: _137  and  _140
REMARK   58  A    between atoms: _140  and  _141
REMARK   59  A    between atoms: _144  and  _146
REMARK   60  A    between atoms: _146  and  _147
REMARK   61  A    between atoms: _146  and  _149
REMARK   62  A    between atoms: _149  and  _150
REMARK   63  A    between atoms: _150  and  _151
REMARK   64  A    between atoms: _151  and  _152
REMARK   65  A    between atoms: _161  and  _163
REMARK   66  A    between atoms: _163  and  _164
REMARK   67  A    between atoms: _163  and  _166
REMARK   68  A    between atoms: _166  and  _167
REMARK   69  A    between atoms: _170  and  _172
REMARK   70  A    between atoms: _172  and  _173
REMARK   71  A    between atoms: _176  and  _178
REMARK   72  A    between atoms: _178  and  _179
REMARK   73  A    between atoms: _178  and  _181
REMARK   74  A    between atoms: _181  and  _182
REMARK   75  A    between atoms: _185  and  _187
REMARK   76  A    between atoms: _187  and  _188
REMARK   77  A    between atoms: _187  and  _190
REMARK   78  A    between atoms: _190  and  _191
REMARK   79  A    between atoms: _194  and  _196
REMARK   80  A    between atoms: _196  and  _197
REMARK   81  A    between atoms: _196  and  _199
REMARK   82  A    between atoms: _199  and  _200
REMARK   83  A    between atoms: _205  and  _207
REMARK   84  A    between atoms: _207  and  _208
REMARK   85  A    between atoms: _207  and  _210
REMARK   86  A    between atoms: _210  and  _211
REMARK   87  A    between atoms: _214  and  _216
REMARK   88  A    between atoms: _216  and  _217
REMARK   89  A    between atoms: _216  and  _219
REMARK   90  A    between atoms: _219  and  _220
REMARK   91  A    between atoms: _223  and  _225
REMARK   92  A    between atoms: _225  and  _226
REMARK   93  A    between atoms: _225  and  _228
REMARK   94  A    between atoms: _228  and  _229
REMARK   95  A    between atoms: _234  and  _235
REMARK   96  A    between atoms: _237  and  _239
REMARK   97  A    between atoms: _239  and  _240
REMARK   98  A    between atoms: _239  and  _242
REMARK   99  A    between atoms: _242  and  _243
REMARK  100  A    between atoms: _248  and  _249
REMARK  101  A    between atoms: _251  and  _253
REMARK  102  A    between atoms: _253  and  _254
REMARK  103  A    between atoms: _253  and  _256
REMARK  104  A    between atoms: _256  and  _257
REMARK  105  A    between atoms: _257  and  _258
REMARK  106  A    between atoms: _258  and  _259
REMARK  107  A    between atoms: _268  and  _270
REMARK  108  A    between atoms: _270  and  _271
REMARK  109  A    between atoms: _270  and  _273
REMARK  110  A    between atoms: _273  and  _274
REMARK  111  A    between atoms: _279  and  _280
REMARK  112  A    between atoms: _282  and  _284
REMARK  113  A    between atoms: _284  and  _285
REMARK  114  A    between atoms: _284  and  _287
REMARK  115  A    between atoms: _287  and  _288
REMARK  116  A    between atoms: _291  and  _293
REMARK  117  A    between atoms: _293  and  _294
REMARK  118  A    between atoms: _293  and  _296
REMARK  119  A    between atoms: _296  and  _297
REMARK  120  A    between atoms: _307  and  _309
REMARK  121  A    between atoms: _309  and  _310
REMARK  122  A    between atoms: _309  and  _312
REMARK  123  A    between atoms: _312  and  _313
REMARK  124  A    between atoms: _316  and  _318
REMARK  125  A    between atoms: _318  and  _319
REMARK  126  A    between atoms: _318  and  _321
REMARK  127  A    between atoms: _321  and  _322
REMARK  128  A    between atoms: _322  and  _323
REMARK  129  A    between atoms: _326  and  _328
REMARK  130  A    between atoms: _328  and  _329
REMARK  131  A    between atoms: _328  and  _331
REMARK  132  A    between atoms: _331  and  _332
REMARK  133  A    between atoms: _334  and  _336
REMARK  134  A    between atoms: _336  and  _337
REMARK  135  A    between atoms: _336  and  _339
REMARK  136  A    between atoms: _339  and  _340
REMARK  137  A    between atoms: _343  and  _345
REMARK  138  A    between atoms: _345  and  _346
REMARK  139  A    between atoms: _348  and  _350
REMARK  140  A    between atoms: _350  and  _351
REMARK  141  A    between atoms: _350  and  _353
REMARK  142  A    between atoms: _353  and  _354
REMARK  143  A    between atoms: _364  and  _366
REMARK  144  A    between atoms: _366  and  _367
REMARK  145  A    between atoms: _366  and  _369
REMARK  146  A    between atoms: _369  and  _370
REMARK  147  A    between atoms: _370  and  _371
REMARK  148  A    between atoms: _371  and  _372
REMARK  149  A    between atoms: _381  and  _383
REMARK  150  A    between atoms: _383  and  _384
REMARK  151  A    between atoms: _383  and  _386
REMARK  152  A    between atoms: _386  and  _387
REMARK  153  A    between atoms: _387  and  _388
REMARK  154  A    between atoms: _388  and  _389
REMARK  155  A    between atoms: _389  and  _390
REMARK  156  A    between atoms: _394  and  _396
REMARK  157  A    between atoms: _396  and  _397
REMARK  158  A    between atoms: _396  and  _399
REMARK  159  A    between atoms: _399  and  _400
REMARK  160  A    between atoms: _400  and  _401
REMARK  161  A    between atoms: _406  and  _408
REMARK  162  A    between atoms: _408  and  _409
REMARK  163  A    between atoms: _408  and  _411
REMARK  164  A    between atoms: _411  and  _412
REMARK                            x       y       z     vdW  Elec       q    Type
REMARK                         _______ _______ _______ _____ _____    ______ ____
ROOT
ATOM      1  CA  LEU A   1      19.156  13.329  31.176  0.00  0.00    +0.133 C 
ENDROOT
BRANCH   1   2
ATOM      2  N   LEU A   1      20.285  12.419  31.085  0.00  0.00    -0.239 NA
ATOM      3  H   LEU A   1      20.177  11.444  31.430  0.00  0.00    +0.142 HD
ENDBRANCH   1   2
BRANCH   1   4
ATOM      4  C   LEU A   1      18.992  13.782  32.620  0.00  0.00    +0.224 C 
ATOM      5  O   LEU A   1      18.804  12.973  33.486  0.00  0.00    -0.287 OA
ENDBRANCH   1   4
BRANCH   1   6
ATOM      6  CB  LEU A   1      17.887  12.641  30.714  0.00  0.00    +0.025 C 
BRANCH   6   7
ATOM      7  CG  LEU A   1      17.883  12.095  29.286  0.00  0.00    +0.002 C 
ATOM      8  CD2 LEU A   1      16.507  11.625  28.909  0.00  0.00    +0.000 C 
ATOM      9  CD1 LEU A   1      18.396  13.147  28.298  0.00  0.00    +0.000 C 
ENDBRANCH   6   7
ENDBRANCH   1   6
TORSDOF 4
REMARK  Name = ../refined-set-2016/3uj9/3uj9_pocket.pdb
REMARK  164 active torsions:
REMARK  status: ('A' for Active; 'I' for Inactive)
REMARK    1  A    between atoms: _1  and  _3
REMARK    2  A    between atoms: _3  and  _4
REMARK    3  A    between atoms: _3  and  _6
REMARK    4  A    between atoms: _6  and  _7
REMARK    5  A    between atoms: _7  and  _8
REMARK    6  A    between atoms: _13  and  _15
REMARK    7  A    between atoms: _15  and  _16
REMARK    8  A    between atoms: _15  and  _18
REMARK    9  A    between atoms: _18  and  _19
REMARK   10  A    between atoms: _24  and  _25
REMARK   11  A    between atoms: _27  and  _29
REMARK   12  A    between atoms: _29  and  _30
REMARK   13  A    between atoms: _32  and  _34
REMARK   14  A    between atoms: _34  and  _35
REMARK   15  A    between atoms: _34  and  _37
REMARK   16  A    between atoms: _37  and  _38
REMARK   17  A    between atoms: _43  and  _44
REMARK   18  A    between atoms: _46  and  _48
REMARK   19  A    between atoms: _48  and  _49
REMARK   20  A    between atoms: _48  and  _51
REMARK   21  A    between atoms: _51  and  _52
REMARK   22  A    between atoms: _55  and  _57
REMARK   23  A    between atoms: _57  and  _58
REMARK   24  A    between atoms: _57  and  _60
REMARK   25  A    between atoms: _60  and  _61
REMARK   26  A    between atoms: _67  and  _69
REMARK   27  A    between atoms: _69  and  _70
REMARK   28  A    between atoms: _69  and  _72
REMARK   29  A    between atoms: _72  and  _73
REMARK   30  A    between atoms: _78  and  _79
REMARK   31  A    between atoms: _81  and  _83
REMARK   32  A    between atoms: _83  and  _84
REMARK   33  A    between atoms: _83  and  _86
REMARK   34  A    between atoms: _86  and  _87
REMARK   35  A    between atoms: _90  and  _92
REMARK   36  A    between atoms: _92  and  _93
REMARK   37  A    between atoms: _92  and  _95
REMARK   38  A    between atoms: _95  and  _96
REMARK   39  A    between atoms: _98  and  _100
REMARK   40  A    between atoms: _100  and  _101
REMARK   41  A    between atoms: _100  and  _103
REMARK   42  A    between atoms: _103  and  _104
REMARK   43  A    between atoms: _106  and  _108
REMARK   44  A    between atoms: _108  and  _109
REMARK   45  A    between atoms: _111  and  _113
REMARK   46  A    between atoms: _113  and  _114
REMARK   47  A    between atoms: _116  and  _118
REMARK   48  A    between atoms: _118  and  _119
REMARK   49  A    between atoms: _121  and  _123
REMARK   50  A    between atoms: _123  and  _124
REMARK   51  A    between atoms: _126  and  _128
REMARK   52  A    between atoms: _128  and  _129
REMARK   53  A    between atoms: _128  and  _131
REMARK   54  A    between atoms: _131  and  _132
REMARK   55  A    between atoms: _135  and  _137
REMARK   56  A    between atoms: _137  and  _138
REMARK   57  A    between atoms: _137  and  _140
REMARK   58  A    between atoms: _140  and  _141
REMARK   59  A    between atoms: _144  and  _146
REMARK   60  A    between atoms: _146  and  _147
REMARK   61  A    between atoms: _146  and  _149
REMARK   62  A    between atoms: _149  and  _150
REMARK   63  A    between atoms: _150  and  _151
REMARK   64  A    between atoms: _151  and  _152
REMARK   65  A    between atoms: _161  and  _163
REMARK   66  A    between atoms: _163  and  _164
REMARK   67  A    between atoms: _163  and  _166
REMARK   68  A    between atoms: _166  and  _167
REMARK   69  A    between atoms: _170  and  _172
REMARK   70  A    between atoms: _172  and  _173
REMARK   71  A    between atoms: _176  and  _178
REMARK   72  A    between atoms: _178  and  _179
REMARK   73  A    between atoms: _178  and  _181
REMARK   74  A    between atoms: _181  and  _182
REMARK   75  A    between atoms: _185  and  _187
REMARK   76  A    between atoms: _187  and  _188
REMARK   77  A    between atoms: _187  and  _190
REMARK   78  A    between atoms: _190  and  _191
REMARK   79  A    between atoms: _194  and  _196
REMARK   80  A    between atoms: _196  and  _197
REMARK   81  A    between atoms: _196  and  _199
REMARK   82  A    between atoms: _199  and  _200
REMARK   83  A    between atoms: _205  and  _207
REMARK   84  A    between atoms: _207  and  _208
REMARK   85  A    between atoms: _207  and  _210
REMARK   86  A    between atoms: _210  and  _211
REMARK   87  A    between atoms: _214  and  _216
REMARK   88  A    between atoms: _216  and  _217
REMARK   89  A    between atoms: _216  and  _219
REMARK   90  A    between atoms: _219  and  _220
REMARK   91  A    between atoms: _223  and  _225
REMARK   92  A    between atoms: _225  and  _226
REMARK   93  A    between atoms: _225  and  _228
REMARK   94  A    between atoms: _228  and  _229
REMARK   95  A    between atoms: _234  and  _235
REMARK   96  A    between atoms: _237  and  _239
REMARK   97  A    between atoms: _239  and  _240
REMARK   98  A    between atoms: _239  and  _242
REMARK   99  A    between atoms: _242  and  _243
REMARK  100  A    between atoms: _248  and  _249
REMARK  101  A    between atoms: _251  and  _253
REMARK  102  A    between atoms: _253  and  _254
REMARK  103  A    between atoms: _253  and  _256
REMARK  104  A    between atoms: _256  and  _257
REMARK  105  A    between atoms: _257  and  _258
REMARK  106  A    between atoms: _258  and  _259
REMARK  107  A    between atoms: _268  and  _270
REMARK  108  A    between atoms: _270  and  _271
REMARK  109  A    between atoms: _270  and  _273
REMARK  110  A    between atoms: _273  and  _274
REMARK  111  A    between atoms: _279  and  _280
REMARK  112  A    between atoms: _282  and  _284
REMARK  113  A    between atoms: _284  and  _285
REMARK  114  A    between atoms: _284  and  _287
REMARK  115  A    between atoms: _287  and  _288
REMARK  116  A    between atoms: _291  and  _293
REMARK  117  A    between atoms: _293  and  _294
REMARK  118  A    between atoms: _293  and  _296
REMARK  119  A    between atoms: _296  and  _297
REMARK  120  A    between atoms: _307  and  _309
REMARK  121  A    between atoms: _309  and  _310
REMARK  122  A    between atoms: _309  and  _312
REMARK  123  A    between atoms: _312  and  _313
REMARK  124  A    between atoms: _316  and  _318
REMARK  125  A    between atoms: _318  and  _319
REMARK  126  A    between atoms: _318  and  _321
REMARK  127  A    between atoms: _321  and  _322
REMARK  128  A    between atoms: _322  and  _323
REMARK  129  A    between atoms: _326  and  _328
REMARK  130  A    between atoms: _328  and  _329
REMARK  131  A    between atoms: _328  and  _331
REMARK  132  A    between atoms: _331  and  _332
REMARK  133  A    between atoms: _334  and  _336
REMARK  134  A    between atoms: _336  and  _337
REMARK  135  A    between atoms: _336  and  _339
REMARK  136  A    between atoms: _339  and  _340
REMARK  137  A    between atoms: _343  and  _345
REMARK  138  A    between atoms: _345  and  _346
REMARK  139  A    between atoms: _348  and  _350
REMARK  140  A    between atoms: _350  and  _351
REMARK  141  A    between atoms: _350  and  _353
REMARK  142  A    between atoms: _353  and  _354
REMARK  143  A    between atoms: _364  and  _366
REMARK  144  A    between atoms: _366  and  _367
REMARK  145  A    between atoms: _366  and  _369
REMARK  146  A    between atoms: _369  and  _370
REMARK  147  A    between atoms: _370  and  _371
REMARK  148  A    between atoms: _371  and  _372
REMARK  149  A    between atoms: _381  and  _383
REMARK  150  A    between atoms: _383  and  _384
REMARK  151  A    between atoms: _383  and  _386
REMARK  152  A    between atoms: _386  and  _387
REMARK  153  A    between atoms: _387  and  _388
REMARK  154  A    between atoms: _388  and  _389
REMARK  155  A    between atoms: _389  and  _390
REMARK  156  A    between atoms: _394  and  _396
REMARK  157  A    between atoms: _396  and  _397
REMARK  158  A    between atoms: _396  and  _399
REMARK  159  A    between atoms: _399  and  _400
REMARK  160  A    between atoms: _400  and  _401
REMARK  161  A    between atoms: _406  and  _408
REMARK  162  A    between atoms: _408  and  _409
REMARK  163  A    between atoms: _408  and  _411
REMARK  164  A    between atoms: _411  and  _412
REMARK                            x       y       z     vdW  Elec       q    Type
REMARK                         _______ _______ _______ _____ _____    ______ ____
ROOT
ATOM      1  CG  TRP A   1       9.344  18.083  23.149  0.00  0.00    -0.002 A 
ATOM      2  CD2 TRP A   1       9.671  16.768  23.593  0.00  0.00    +0.013 A 
ATOM      3  CE3 TRP A   1       9.241  15.965  24.660  0.00  0.00    +0.001 A 
ATOM      4  CZ3 TRP A   1       9.797  14.709  24.811  0.00  0.00    +0.000 A 
ATOM      5  CH2 TRP A   1      10.784  14.249  23.928  0.00  0.00    +0.001 A 
ATOM      6  CZ2 TRP A   1      11.229  15.041  22.896  0.00  0.00    +0.017 A 
ATOM      7  CE2 TRP A   1      10.677  16.288  22.755  0.00  0.00    +0.056 A 
ATOM      8  NE1 TRP A   1      10.944  17.270  21.847  0.00  0.00    -0.352 N 
ATOM      9  HE1 TRP A   1      11.659  17.212  21.094  0.00  0.00    +0.166 HD
ATOM     10  CD1 TRP A   1      10.137  18.332  22.075  0.00  0.00    +0.068 A 
ENDROOT
BRANCH   1  11
ATOM     11  CB  TRP A   1       8.330  19.040  23.794  0.00  0.00    +0.053 C 
BRANCH  11  12
ATOM     12  CA  TRP A   1       7.287  19.568  22.825  0.00  0.00    +0.137 C 
BRANCH  12  13
ATOM     13  N   TRP A   1       6.586  20.698  23.445  0.00  0.00    -0.239 NA
ATOM     14  H   TRP A   1       6.852  21.005  24.403  0.00  0.00    +0.142 HD
ENDBRANCH  12  13
BRANCH  12  15
ATOM     15  C   TRP A   1       6.287  18.471  22.420  0.00  0.00    +0.224 C 
ATOM     16  O   TRP A   1       6.336  17.921  21.346  0.00  0.00    -0.287 OA
ENDBRANCH  12  15
ENDBRANCH  11  12
ENDBRANCH   1  11
TORSDOF 4
REMARK  Name = ../refined-set-2016/3uj9/3uj9_pocket.pdb
REMARK  164 active torsions:
REMARK  status: ('A' for Active; 'I' for Inactive)
REMARK    1  A    between atoms: _1  and  _3
REMARK    2  A    between atoms: _3  and  _4
REMARK    3  A    between atoms: _3  and  _6
REMARK    4  A    between atoms: _6  and  _7
REMARK    5  A    between atoms: _7  and  _8
REMARK    6  A    between atoms: _13  and  _15
REMARK    7  A    between atoms: _15  and  _16
REMARK    8  A    between atoms: _15  and  _18
REMARK    9  A    between atoms: _18  and  _19
REMARK   10  A    between atoms: _24  and  _25
REMARK   11  A    between atoms: _27  and  _29
REMARK   12  A    between atoms: _29  and  _30
REMARK   13  A    between atoms: _32  and  _34
REMARK   14  A    between atoms: _34  and  _35
REMARK   15  A    between atoms: _34  and  _37
REMARK   16  A    between atoms: _37  and  _38
REMARK   17  A    between atoms: _43  and  _44
REMARK   18  A    between atoms: _46  and  _48
REMARK   19  A    between atoms: _48  and  _49
REMARK   20  A    between atoms: _48  and  _51
REMARK   21  A    between atoms: _51  and  _52
REMARK   22  A    between atoms: _55  and  _57
REMARK   23  A    between atoms: _57  and  _58
REMARK   24  A    between atoms: _57  and  _60
REMARK   25  A    between atoms: _60  and  _61
REMARK   26  A    between atoms: _67  and  _69
REMARK   27  A    between atoms: _69  and  _70
REMARK   28  A    between atoms: _69  and  _72
REMARK   29  A    between atoms: _72  and  _73
REMARK   30  A    between atoms: _78  and  _79
REMARK   31  A    between atoms: _81  and  _83
REMARK   32  A    between atoms: _83  and  _84
REMARK   33  A    between atoms: _83  and  _86
REMARK   34  A    between atoms: _86  and  _87
REMARK   35  A    between atoms: _90  and  _92
REMARK   36  A    between atoms: _92  and  _93
REMARK   37  A    between atoms: _92  and  _95
REMARK   38  A    between atoms: _95  and  _96
REMARK   39  A    between atoms: _98  and  _100
REMARK   40  A    between atoms: _100  and  _101
REMARK   41  A    between atoms: _100  and  _103
REMARK   42  A    between atoms: _103  and  _104
REMARK   43  A    between atoms: _106  and  _108
REMARK   44  A    between atoms: _108  and  _109
REMARK   45  A    between atoms: _111  and  _113
REMARK   46  A    between atoms: _113  and  _114
REMARK   47  A    between atoms: _116  and  _118
REMARK   48  A    between atoms: _118  and  _119
REMARK   49  A    between atoms: _121  and  _123
REMARK   50  A    between atoms: _123  and  _124
REMARK   51  A    between atoms: _126  and  _128
REMARK   52  A    between atoms: _128  and  _129
REMARK   53  A    between atoms: _128  and  _131
REMARK   54  A    between atoms: _131  and  _132
REMARK   55  A    between atoms: _135  and  _137
REMARK   56  A    between atoms: _137  and  _138
REMARK   57  A    between atoms: _137  and  _140
REMARK   58  A    between atoms: _140  and  _141
REMARK   59  A    between atoms: _144  and  _146
REMARK   60  A    between atoms: _146  and  _147
REMARK   61  A    between atoms: _146  and  _149
REMARK   62  A    between atoms: _149  and  _150
REMARK   63  A    between atoms: _150  and  _151
REMARK   64  A    between atoms: _151  and  _152
REMARK   65  A    between atoms: _161  and  _163
REMARK   66  A    between atoms: _163  and  _164
REMARK   67  A    between atoms: _163  and  _166
REMARK   68  A    between atoms: _166  and  _167
REMARK   69  A    between atoms: _170  and  _172
REMARK   70  A    between atoms: _172  and  _173
REMARK   71  A    between atoms: _176  and  _178
REMARK   72  A    between atoms: _178  and  _179
REMARK   73  A    between atoms: _178  and  _181
REMARK   74  A    between atoms: _181  and  _182
REMARK   75  A    between atoms: _185  and  _187
REMARK   76  A    between atoms: _187  and  _188
REMARK   77  A    between atoms: _187  and  _190
REMARK   78  A    between atoms: _190  and  _191
REMARK   79  A    between atoms: _194  and  _196
REMARK   80  A    between atoms: _196  and  _197
REMARK   81  A    between atoms: _196  and  _199
REMARK   82  A    between atoms: _199  and  _200
REMARK   83  A    between atoms: _205  and  _207
REMARK   84  A    between atoms: _207  and  _208
REMARK   85  A    between atoms: _207  and  _210
REMARK   86  A    between atoms: _210  and  _211
REMARK   87  A    between atoms: _214  and  _216
REMARK   88  A    between atoms: _216  and  _217
REMARK   89  A    between atoms: _216  and  _219
REMARK   90  A    between atoms: _219  and  _220
REMARK   91  A    between atoms: _223  and  _225
REMARK   92  A    between atoms: _225  and  _226
REMARK   93  A    between atoms: _225  and  _228
REMARK   94  A    between atoms: _228  and  _229
REMARK   95  A    between atoms: _234  and  _235
REMARK   96  A    between atoms: _237  and  _239
REMARK   97  A    between atoms: _239  and  _240
REMARK   98  A    between atoms: _239  and  _242
REMARK   99  A    between atoms: _242  and  _243
REMARK  100  A    between atoms: _248  and  _249
REMARK  101  A    between atoms: _251  and  _253
REMARK  102  A    between atoms: _253  and  _254
REMARK  103  A    between atoms: _253  and  _256
REMARK  104  A    between atoms: _256  and  _257
REMARK  105  A    between atoms: _257  and  _258
REMARK  106  A    between atoms: _258  and  _259
REMARK  107  A    between atoms: _268  and  _270
REMARK  108  A    between atoms: _270  and  _271
REMARK  109  A    between atoms: _270  and  _273
REMARK  110  A    between atoms: _273  and  _274
REMARK  111  A    between atoms: _279  and  _280
REMARK  112  A    between atoms: _282  and  _284
REMARK  113  A    between atoms: _284  and  _285
REMARK  114  A    between atoms: _284  and  _287
REMARK  115  A    between atoms: _287  and  _288
REMARK  116  A    between atoms: _291  and  _293
REMARK  117  A    between atoms: _293  and  _294
REMARK  118  A    between atoms: _293  and  _296
REMARK  119  A    between atoms: _296  and  _297
REMARK  120  A    between atoms: _307  and  _309
REMARK  121  A    between atoms: _309  and  _310
REMARK  122  A    between atoms: _309  and  _312
REMARK  123  A    between atoms: _312  and  _313
REMARK  124  A    between atoms: _316  and  _318
REMARK  125  A    between atoms: _318  and  _319
REMARK  126  A    between atoms: _318  and  _321
REMARK  127  A    between atoms: _321  and  _322
REMARK  128  A    between atoms: _322  and  _323
REMARK  129  A    between atoms: _326  and  _328
REMARK  130  A    between atoms: _328  and  _329
REMARK  131  A    between atoms: _328  and  _331
REMARK  132  A    between atoms: _331  and  _332
REMARK  133  A    between atoms: _334  and  _336
REMARK  134  A    between atoms: _336  and  _337
REMARK  135  A    between atoms: _336  and  _339
REMARK  136  A    between atoms: _339  and  _340
REMARK  137  A    between atoms: _343  and  _345
REMARK  138  A    between atoms: _345  and  _346
REMARK  139  A    between atoms: _348  and  _350
REMARK  140  A    between atoms: _350  and  _351
REMARK  141  A    between atoms: _350  and  _353
REMARK  142  A    between atoms: _353  and  _354
REMARK  143  A    between atoms: _364  and  _366
REMARK  144  A    between atoms: _366  and  _367
REMARK  145  A    between atoms: _366  and  _369
REMARK  146  A    between atoms: _369  and  _370
REMARK  147  A    between atoms: _370  and  _371
REMARK  148  A    between atoms: _371  and  _372
REMARK  149  A    between atoms: _381  and  _383
REMARK  150  A    between atoms: _383  and  _384
REMARK  151  A    between atoms: _383  and  _386
REMARK  152  A    between atoms: _386  and  _387
REMARK  153  A    between atoms: _387  and  _388
REMARK  154  A    between atoms: _388  and  _389
REMARK  155  A    between atoms: _389  and  _390
REMARK  156  A    between atoms: _394  and  _396
REMARK  157  A    between atoms: _396  and  _397
REMARK  158  A    between atoms: _396  and  _399
REMARK  159  A    between atoms: _399  and  _400
REMARK  160  A    between atoms: _400  and  _401
REMARK  161  A    between atoms: _406  and  _408
REMARK  162  A    between atoms: _408  and  _409
REMARK  163  A    between atoms: _408  and  _411
REMARK  164  A    between atoms: _411  and  _412
REMARK                            x       y       z     vdW  Elec       q    Type
REMARK                         _______ _______ _______ _____ _____    ______ ____
ROOT
ATOM      1  CA  LEU A   1       5.761  15.528  18.510  0.00  0.00    +0.133 C 
ENDROOT
BRANCH   1   2
ATOM      2  N   LEU A   1       5.691  16.966  18.729  0.00  0.00    -0.239 NA
ATOM      3  H   LEU A   1       5.681  17.315  19.709  0.00  0.00    +0.142 HD
ENDBRANCH   1   2
BRANCH   1   4
ATOM      4  C   LEU A   1       4.513  15.034  17.829  0.00  0.00    +0.224 C 
ATOM      5  O   LEU A   1       4.591  14.194  17.016  0.00  0.00    -0.287 OA
ENDBRANCH   1   4
BRANCH   1   6
ATOM      6  CB  LEU A   1       5.983  14.777  19.827  0.00  0.00    +0.025 C 
BRANCH   6   7
ATOM      7  CG  LEU A   1       7.358  14.937  20.515  0.00  0.00    +0.002 C 
ATOM      8  CD2 LEU A   1       7.276  14.533  21.981  0.00  0.00    +0.000 C 
ATOM      9  CD1 LEU A   1       8.411  14.098  19.754  0.00  0.00    +0.000 C 
ENDBRANCH   6   7
ENDBRANCH   1   6
TORSDOF 4
REMARK  Name = ../refined-set-2016/3uj9/3uj9_pocket.pdb
REMARK  164 active torsions:
REMARK  status: ('A' for Active; 'I' for Inactive)
REMARK    1  A    between atoms: _1  and  _3
REMARK    2  A    between atoms: _3  and  _4
REMARK    3  A    between atoms: _3  and  _6
REMARK    4  A    between atoms: _6  and  _7
REMARK    5  A    between atoms: _7  and  _8
REMARK    6  A    between atoms: _13  and  _15
REMARK    7  A    between atoms: _15  and  _16
REMARK    8  A    between atoms: _15  and  _18
REMARK    9  A    between atoms: _18  and  _19
REMARK   10  A    between atoms: _24  and  _25
REMARK   11  A    between atoms: _27  and  _29
REMARK   12  A    between atoms: _29  and  _30
REMARK   13  A    between atoms: _32  and  _34
REMARK   14  A    between atoms: _34  and  _35
REMARK   15  A    between atoms: _34  and  _37
REMARK   16  A    between atoms: _37  and  _38
REMARK   17  A    between atoms: _43  and  _44
REMARK   18  A    between atoms: _46  and  _48
REMARK   19  A    between atoms: _48  and  _49
REMARK   20  A    between atoms: _48  and  _51
REMARK   21  A    between atoms: _51  and  _52
REMARK   22  A    between atoms: _55  and  _57
REMARK   23  A    between atoms: _57  and  _58
REMARK   24  A    between atoms: _57  and  _60
REMARK   25  A    between atoms: _60  and  _61
REMARK   26  A    between atoms: _67  and  _69
REMARK   27  A    between atoms: _69  and  _70
REMARK   28  A    between atoms: _69  and  _72
REMARK   29  A    between atoms: _72  and  _73
REMARK   30  A    between atoms: _78  and  _79
REMARK   31  A    between atoms: _81  and  _83
REMARK   32  A    between atoms: _83  and  _84
REMARK   33  A    between atoms: _83  and  _86
REMARK   34  A    between atoms: _86  and  _87
REMARK   35  A    between atoms: _90  and  _92
REMARK   36  A    between atoms: _92  and  _93
REMARK   37  A    between atoms: _92  and  _95
REMARK   38  A    between atoms: _95  and  _96
REMARK   39  A    between atoms: _98  and  _100
REMARK   40  A    between atoms: _100  and  _101
REMARK   41  A    between atoms: _100  and  _103
REMARK   42  A    between atoms: _103  and  _104
REMARK   43  A    between atoms: _106  and  _108
REMARK   44  A    between atoms: _108  and  _109
REMARK   45  A    between atoms: _111  and  _113
REMARK   46  A    between atoms: _113  and  _114
REMARK   47  A    between atoms: _116  and  _118
REMARK   48  A    between atoms: _118  and  _119
REMARK   49  A    between atoms: _121  and  _123
REMARK   50  A    between atoms: _123  and  _124
REMARK   51  A    between atoms: _126  and  _128
REMARK   52  A    between atoms: _128  and  _129
REMARK   53  A    between atoms: _128  and  _131
REMARK   54  A    between atoms: _131  and  _132
REMARK   55  A    between atoms: _135  and  _137
REMARK   56  A    between atoms: _137  and  _138
REMARK   57  A    between atoms: _137  and  _140
REMARK   58  A    between atoms: _140  and  _141
REMARK   59  A    between atoms: _144  and  _146
REMARK   60  A    between atoms: _146  and  _147
REMARK   61  A    between atoms: _146  and  _149
REMARK   62  A    between atoms: _149  and  _150
REMARK   63  A    between atoms: _150  and  _151
REMARK   64  A    between atoms: _151  and  _152
REMARK   65  A    between atoms: _161  and  _163
REMARK   66  A    between atoms: _163  and  _164
REMARK   67  A    between atoms: _163  and  _166
REMARK   68  A    between atoms: _166  and  _167
REMARK   69  A    between atoms: _170  and  _172
REMARK   70  A    between atoms: _172  and  _173
REMARK   71  A    between atoms: _176  and  _178
REMARK   72  A    between atoms: _178  and  _179
REMARK   73  A    between atoms: _178  and  _181
REMARK   74  A    between atoms: _181  and  _182
REMARK   75  A    between atoms: _185  and  _187
REMARK   76  A    between atoms: _187  and  _188
REMARK   77  A    between atoms: _187  and  _190
REMARK   78  A    between atoms: _190  and  _191
REMARK   79  A    between atoms: _194  and  _196
REMARK   80  A    between atoms: _196  and  _197
REMARK   81  A    between atoms: _196  and  _199
REMARK   82  A    between atoms: _199  and  _200
REMARK   83  A    between atoms: _205  and  _207
REMARK   84  A    between atoms: _207  and  _208
REMARK   85  A    between atoms: _207  and  _210
REMARK   86  A    between atoms: _210  and  _211
REMARK   87  A    between atoms: _214  and  _216
REMARK   88  A    between atoms: _216  and  _217
REMARK   89  A    between atoms: _216  and  _219
REMARK   90  A    between atoms: _219  and  _220
REMARK   91  A    between atoms: _223  and  _225
REMARK   92  A    between atoms: _225  and  _226
REMARK   93  A    between atoms: _225  and  _228
REMARK   94  A    between atoms: _228  and  _229
REMARK   95  A    between atoms: _234  and  _235
REMARK   96  A    between atoms: _237  and  _239
REMARK   97  A    between atoms: _239  and  _240
REMARK   98  A    between atoms: _239  and  _242
REMARK   99  A    between atoms: _242  and  _243
REMARK  100  A    between atoms: _248  and  _249
REMARK  101  A    between atoms: _251  and  _253
REMARK  102  A    between atoms: _253  and  _254
REMARK  103  A    between atoms: _253  and  _256
REMARK  104  A    between atoms: _256  and  _257
REMARK  105  A    between atoms: _257  and  _258
REMARK  106  A    between atoms: _258  and  _259
REMARK  107  A    between atoms: _268  and  _270
REMARK  108  A    between atoms: _270  and  _271
REMARK  109  A    between atoms: _270  and  _273
REMARK  110  A    between atoms: _273  and  _274
REMARK  111  A    between atoms: _279  and  _280
REMARK  112  A    between atoms: _282  and  _284
REMARK  113  A    between atoms: _284  and  _285
REMARK  114  A    between atoms: _284  and  _287
REMARK  115  A    between atoms: _287  and  _288
REMARK  116  A    between atoms: _291  and  _293
REMARK  117  A    between atoms: _293  and  _294
REMARK  118  A    between atoms: _293  and  _296
REMARK  119  A    between atoms: _296  and  _297
REMARK  120  A    between atoms: _307  and  _309
REMARK  121  A    between atoms: _309  and  _310
REMARK  122  A    between atoms: _309  and  _312
REMARK  123  A    between atoms: _312  and  _313
REMARK  124  A    between atoms: _316  and  _318
REMARK  125  A    between atoms: _318  and  _319
REMARK  126  A    between atoms: _318  and  _321
REMARK  127  A    between atoms: _321  and  _322
REMARK  128  A    between atoms: _322  and  _323
REMARK  129  A    between atoms: _326  and  _328
REMARK  130  A    between atoms: _328  and  _329
REMARK  131  A    between atoms: _328  and  _331
REMARK  132  A    between atoms: _331  and  _332
REMARK  133  A    between atoms: _334  and  _336
REMARK  134  A    between atoms: _336  and  _337
REMARK  135  A    between atoms: _336  and  _339
REMARK  136  A    between atoms: _339  and  _340
REMARK  137  A    between atoms: _343  and  _345
REMARK  138  A    between atoms: _345  and  _346
REMARK  139  A    between atoms: _348  and  _350
REMARK  140  A    between atoms: _350  and  _351
REMARK  141  A    between atoms: _350  and  _353
REMARK  142  A    between atoms: _353  and  _354
REMARK  143  A    between atoms: _364  and  _366
REMARK  144  A    between atoms: _366  and  _367
REMARK  145  A    between atoms: _366  and  _369
REMARK  146  A    between atoms: _369  and  _370
REMARK  147  A    between atoms: _370  and  _371
REMARK  148  A    between atoms: _371  and  _372
REMARK  149  A    between atoms: _381  and  _383
REMARK  150  A    between atoms: _383  and  _384
REMARK  151  A    between atoms: _383  and  _386
REMARK  152  A    between atoms: _386  and  _387
REMARK  153  A    between atoms: _387  and  _388
REMARK  154  A    between atoms: _388  and  _389
REMARK  155  A    between atoms: _389  and  _390
REMARK  156  A    between atoms: _394  and  _396
REMARK  157  A    between atoms: _396  and  _397
REMARK  158  A    between atoms: _396  and  _399
REMARK  159  A    between atoms: _399  and  _400
REMARK  160  A    between atoms: _400  and  _401
REMARK  161  A    between atoms: _406  and  _408
REMARK  162  A    between atoms: _408  and  _409
REMARK  163  A    between atoms: _408  and  _411
REMARK  164  A    between atoms: _411  and  _412
REMARK                            x       y       z     vdW  Elec       q    Type
REMARK                         _______ _______ _______ _____ _____    ______ ____
ROOT
ATOM      1  CA  GLU A   1       5.532  15.045  13.481  0.00  0.00    +0.134 C 
ENDROOT
BRANCH   1   2
ATOM      2  N   GLU A   1       4.602  15.942  14.132  0.00  0.00    -0.239 NA
ATOM      3  H   GLU A   1       4.863  16.336  15.058  0.00  0.00    +0.142 HD
ENDBRANCH   1   2
BRANCH   1   4
ATOM      4  C   GLU A   1       4.946  13.643  13.312  0.00  0.00    +0.224 C 
ATOM      5  O   GLU A   1       5.066  13.054  12.270  0.00  0.00    -0.287 OA
ENDBRANCH   1   4
BRANCH   1   6
ATOM      6  CB  GLU A   1       6.803  14.996  14.334  0.00  0.00    +0.037 C 
BRANCH   6   7
ATOM      7  CG  GLU A   1       7.704  16.217  14.142  0.00  0.00    +0.116 C 
BRANCH   7   8
ATOM      8  CD  GLU A   1       8.677  16.476  15.317  0.00  0.00    +0.365 C 
ATOM      9  OE2 GLU A   1       8.755  15.717  16.268  0.00  0.00    -0.246 OA
ATOM     10  OE1 GLU A   1       9.354  17.494  15.190  0.00  0.00    -0.246 OA
ENDBRANCH   7   8
ENDBRANCH   6   7
ENDBRANCH   1   6
TORSDOF 5
REMARK  Name = ../refined-set-2016/3uj9/3uj9_pocket.pdb
REMARK  164 active torsions:
REMARK  status: ('A' for Active; 'I' for Inactive)
REMARK    1  A    between atoms: _1  and  _3
REMARK    2  A    between atoms: _3  and  _4
REMARK    3  A    between atoms: _3  and  _6
REMARK    4  A    between atoms: _6  and  _7
REMARK    5  A    between atoms: _7  and  _8
REMARK    6  A    between atoms: _13  and  _15
REMARK    7  A    between atoms: _15  and  _16
REMARK    8  A    between atoms: _15  and  _18
REMARK    9  A    between atoms: _18  and  _19
REMARK   10  A    between atoms: _24  and  _25
REMARK   11  A    between atoms: _27  and  _29
REMARK   12  A    between atoms: _29  and  _30
REMARK   13  A    between atoms: _32  and  _34
REMARK   14  A    between atoms: _34  and  _35
REMARK   15  A    between atoms: _34  and  _37
REMARK   16  A    between atoms: _37  and  _38
REMARK   17  A    between atoms: _43  and  _44
REMARK   18  A    between atoms: _46  and  _48
REMARK   19  A    between atoms: _48  and  _49
REMARK   20  A    between atoms: _48  and  _51
REMARK   21  A    between atoms: _51  and  _52
REMARK   22  A    between atoms: _55  and  _57
REMARK   23  A    between atoms: _57  and  _58
REMARK   24  A    between atoms: _57  and  _60
REMARK   25  A    between atoms: _60  and  _61
REMARK   26  A    between atoms: _67  and  _69
REMARK   27  A    between atoms: _69  and  _70
REMARK   28  A    between atoms: _69  and  _72
REMARK   29  A    between atoms: _72  and  _73
REMARK   30  A    between atoms: _78  and  _79
REMARK   31  A    between atoms: _81  and  _83
REMARK   32  A    between atoms: _83  and  _84
REMARK   33  A    between atoms: _83  and  _86
REMARK   34  A    between atoms: _86  and  _87
REMARK   35  A    between atoms: _90  and  _92
REMARK   36  A    between atoms: _92  and  _93
REMARK   37  A    between atoms: _92  and  _95
REMARK   38  A    between atoms: _95  and  _96
REMARK   39  A    between atoms: _98  and  _100
REMARK   40  A    between atoms: _100  and  _101
REMARK   41  A    between atoms: _100  and  _103
REMARK   42  A    between atoms: _103  and  _104
REMARK   43  A    between atoms: _106  and  _108
REMARK   44  A    between atoms: _108  and  _109
REMARK   45  A    between atoms: _111  and  _113
REMARK   46  A    between atoms: _113  and  _114
REMARK   47  A    between atoms: _116  and  _118
REMARK   48  A    between atoms: _118  and  _119
REMARK   49  A    between atoms: _121  and  _123
REMARK   50  A    between atoms: _123  and  _124
REMARK   51  A    between atoms: _126  and  _128
REMARK   52  A    between atoms: _128  and  _129
REMARK   53  A    between atoms: _128  and  _131
REMARK   54  A    between atoms: _131  and  _132
REMARK   55  A    between atoms: _135  and  _137
REMARK   56  A    between atoms: _137  and  _138
REMARK   57  A    between atoms: _137  and  _140
REMARK   58  A    between atoms: _140  and  _141
REMARK   59  A    between atoms: _144  and  _146
REMARK   60  A    between atoms: _146  and  _147
REMARK   61  A    between atoms: _146  and  _149
REMARK   62  A    between atoms: _149  and  _150
REMARK   63  A    between atoms: _150  and  _151
REMARK   64  A    between atoms: _151  and  _152
REMARK   65  A    between atoms: _161  and  _163
REMARK   66  A    between atoms: _163  and  _164
REMARK   67  A    between atoms: _163  and  _166
REMARK   68  A    between atoms: _166  and  _167
REMARK   69  A    between atoms: _170  and  _172
REMARK   70  A    between atoms: _172  and  _173
REMARK   71  A    between atoms: _176  and  _178
REMARK   72  A    between atoms: _178  and  _179
REMARK   73  A    between atoms: _178  and  _181
REMARK   74  A    between atoms: _181  and  _182
REMARK   75  A    between atoms: _185  and  _187
REMARK   76  A    between atoms: _187  and  _188
REMARK   77  A    between atoms: _187  and  _190
REMARK   78  A    between atoms: _190  and  _191
REMARK   79  A    between atoms: _194  and  _196
REMARK   80  A    between atoms: _196  and  _197
REMARK   81  A    between atoms: _196  and  _199
REMARK   82  A    between atoms: _199  and  _200
REMARK   83  A    between atoms: _205  and  _207
REMARK   84  A    between atoms: _207  and  _208
REMARK   85  A    between atoms: _207  and  _210
REMARK   86  A    between atoms: _210  and  _211
REMARK   87  A    between atoms: _214  and  _216
REMARK   88  A    between atoms: _216  and  _217
REMARK   89  A    between atoms: _216  and  _219
REMARK   90  A    between atoms: _219  and  _220
REMARK   91  A    between atoms: _223  and  _225
REMARK   92  A    between atoms: _225  and  _226
REMARK   93  A    between atoms: _225  and  _228
REMARK   94  A    between atoms: _228  and  _229
REMARK   95  A    between atoms: _234  and  _235
REMARK   96  A    between atoms: _237  and  _239
REMARK   97  A    between atoms: _239  and  _240
REMARK   98  A    between atoms: _239  and  _242
REMARK   99  A    between atoms: _242  and  _243
REMARK  100  A    between atoms: _248  and  _249
REMARK  101  A    between atoms: _251  and  _253
REMARK  102  A    between atoms: _253  and  _254
REMARK  103  A    between atoms: _253  and  _256
REMARK  104  A    between atoms: _256  and  _257
REMARK  105  A    between atoms: _257  and  _258
REMARK  106  A    between atoms: _258  and  _259
REMARK  107  A    between atoms: _268  and  _270
REMARK  108  A    between atoms: _270  and  _271
REMARK  109  A    between atoms: _270  and  _273
REMARK  110  A    between atoms: _273  and  _274
REMARK  111  A    between atoms: _279  and  _280
REMARK  112  A    between atoms: _282  and  _284
REMARK  113  A    between atoms: _284  and  _285
REMARK  114  A    between atoms: _284  and  _287
REMARK  115  A    between atoms: _287  and  _288
REMARK  116  A    between atoms: _291  and  _293
REMARK  117  A    between atoms: _293  and  _294
REMARK  118  A    between atoms: _293  and  _296
REMARK  119  A    between atoms: _296  and  _297
REMARK  120  A    between atoms: _307  and  _309
REMARK  121  A    between atoms: _309  and  _310
REMARK  122  A    between atoms: _309  and  _312
REMARK  123  A    between atoms: _312  and  _313
REMARK  124  A    between atoms: _316  and  _318
REMARK  125  A    between atoms: _318  and  _319
REMARK  126  A    between atoms: _318  and  _321
REMARK  127  A    between atoms: _321  and  _322
REMARK  128  A    between atoms: _322  and  _323
REMARK  129  A    between atoms: _326  and  _328
REMARK  130  A    between atoms: _328  and  _329
REMARK  131  A    between atoms: _328  and  _331
REMARK  132  A    between atoms: _331  and  _332
REMARK  133  A    between atoms: _334  and  _336
REMARK  134  A    between atoms: _336  and  _337
REMARK  135  A    between atoms: _336  and  _339
REMARK  136  A    between atoms: _339  and  _340
REMARK  137  A    between atoms: _343  and  _345
REMARK  138  A    between atoms: _345  and  _346
REMARK  139  A    between atoms: _348  and  _350
REMARK  140  A    between atoms: _350  and  _351
REMARK  141  A    between atoms: _350  and  _353
REMARK  142  A    between atoms: _353  and  _354
REMARK  143  A    between atoms: _364  and  _366
REMARK  144  A    between atoms: _366  and  _367
REMARK  145  A    between atoms: _366  and  _369
REMARK  146  A    between atoms: _369  and  _370
REMARK  147  A    between atoms: _370  and  _371
REMARK  148  A    between atoms: _371  and  _372
REMARK  149  A    between atoms: _381  and  _383
REMARK  150  A    between atoms: _383  and  _384
REMARK  151  A    between atoms: _383  and  _386
REMARK  152  A    between atoms: _386  and  _387
REMARK  153  A    between atoms: _387  and  _388
REMARK  154  A    between atoms: _388  and  _389
REMARK  155  A    between atoms: _389  and  _390
REMARK  156  A    between atoms: _394  and  _396
REMARK  157  A    between atoms: _396  and  _397
REMARK  158  A    between atoms: _396  and  _399
REMARK  159  A    between atoms: _399  and  _400
REMARK  160  A    between atoms: _400  and  _401
REMARK  161  A    between atoms: _406  and  _408
REMARK  162  A    between atoms: _408  and  _409
REMARK  163  A    between atoms: _408  and  _411
REMARK  164  A    between atoms: _411  and  _412
REMARK                            x       y       z     vdW  Elec       q    Type
REMARK                         _______ _______ _______ _____ _____    ______ ____
ROOT
ATOM      1  C   SER A   1      10.585   3.318  15.397  0.00  0.00    +0.241 C 
ATOM      2  O   SER A   1      10.492   3.763  16.500  0.00  0.00    -0.274 OA
ATOM      3  N   LEU A   2      10.479   4.084  14.328  0.00  0.00    -0.298 N 
ATOM      4  H   LEU A   2      10.537   3.640  13.390  0.00  0.00    +0.150 HD
ENDROOT
BRANCH   1   5
ATOM      5  CA  SER A   1      10.833   1.825  15.179  0.00  0.00    +0.174 C 
BRANCH   5   6
ATOM      6  N   SER A   1       9.949   1.289  14.137  0.00  0.00    -0.236 NA
ATOM      7  H   SER A   1      10.353   0.858  13.281  0.00  0.00    +0.142 HD
ENDBRANCH   5   6
BRANCH   5   8
ATOM      8  CB  SER A   1      12.301   1.582  14.828  0.00  0.00    +0.163 C 
BRANCH   8   9
ATOM      9  OG  SER A   1      12.570   0.197  14.812  0.00  0.00    -0.380 OA
ATOM     10  H   SER A   1      13.522   0.050  14.584  0.00  0.00    +0.211 HD
ENDBRANCH   8   9
ENDBRANCH   5   8
ENDBRANCH   1   5
BRANCH   3  11
ATOM     11  CA  LEU A   2      10.285   5.515  14.405  0.00  0.00    +0.137 C 
BRANCH  11  12
ATOM     12  C   LEU A   2       8.912   5.827  15.003  0.00  0.00    +0.227 C 
ATOM     13  O   LEU A   2       8.797   6.635  15.888  0.00  0.00    -0.286 OA
ENDBRANCH  11  12
BRANCH  11  14
ATOM     14  CB  LEU A   2      10.442   6.137  12.990  0.00  0.00    +0.028 C 
BRANCH  14  15
ATOM     15  CG  LEU A   2      10.496   7.665  12.940  0.00  0.00    +0.002 C 
ATOM     16  CD2 LEU A   2      11.785   8.132  13.591  0.00  0.00    +0.000 C 
ATOM     17  CD1 LEU A   2      10.420   8.143  11.477  0.00  0.00    +0.000 C 
ENDBRANCH  14  15
ENDBRANCH  11  14
ENDBRANCH   3  11
TORSDOF 8
REMARK  Name = ../refined-set-2016/3uj9/3uj9_pocket.pdb
REMARK  164 active torsions:
REMARK  status: ('A' for Active; 'I' for Inactive)
REMARK    1  A    between atoms: _1  and  _3
REMARK    2  A    between atoms: _3  and  _4
REMARK    3  A    between atoms: _3  and  _6
REMARK    4  A    between atoms: _6  and  _7
REMARK    5  A    between atoms: _7  and  _8
REMARK    6  A    between atoms: _13  and  _15
REMARK    7  A    between atoms: _15  and  _16
REMARK    8  A    between atoms: _15  and  _18
REMARK    9  A    between atoms: _18  and  _19
REMARK   10  A    between atoms: _24  and  _25
REMARK   11  A    between atoms: _27  and  _29
REMARK   12  A    between atoms: _29  and  _30
REMARK   13  A    between atoms: _32  and  _34
REMARK   14  A    between atoms: _34  and  _35
REMARK   15  A    between atoms: _34  and  _37
REMARK   16  A    between atoms: _37  and  _38
REMARK   17  A    between atoms: _43  and  _44
REMARK   18  A    between atoms: _46  and  _48
REMARK   19  A    between atoms: _48  and  _49
REMARK   20  A    between atoms: _48  and  _51
REMARK   21  A    between atoms: _51  and  _52
REMARK   22  A    between atoms: _55  and  _57
REMARK   23  A    between atoms: _57  and  _58
REMARK   24  A    between atoms: _57  and  _60
REMARK   25  A    between atoms: _60  and  _61
REMARK   26  A    between atoms: _67  and  _69
REMARK   27  A    between atoms: _69  and  _70
REMARK   28  A    between atoms: _69  and  _72
REMARK   29  A    between atoms: _72  and  _73
REMARK   30  A    between atoms: _78  and  _79
REMARK   31  A    between atoms: _81  and  _83
REMARK   32  A    between atoms: _83  and  _84
REMARK   33  A    between atoms: _83  and  _86
REMARK   34  A    between atoms: _86  and  _87
REMARK   35  A    between atoms: _90  and  _92
REMARK   36  A    between atoms: _92  and  _93
REMARK   37  A    between atoms: _92  and  _95
REMARK   38  A    between atoms: _95  and  _96
REMARK   39  A    between atoms: _98  and  _100
REMARK   40  A    between atoms: _100  and  _101
REMARK   41  A    between atoms: _100  and  _103
REMARK   42  A    between atoms: _103  and  _104
REMARK   43  A    between atoms: _106  and  _108
REMARK   44  A    between atoms: _108  and  _109
REMARK   45  A    between atoms: _111  and  _113
REMARK   46  A    between atoms: _113  and  _114
REMARK   47  A    between atoms: _116  and  _118
REMARK   48  A    between atoms: _118  and  _119
REMARK   49  A    between atoms: _121  and  _123
REMARK   50  A    between atoms: _123  and  _124
REMARK   51  A    between atoms: _126  and  _128
REMARK   52  A    between atoms: _128  and  _129
REMARK   53  A    between atoms: _128  and  _131
REMARK   54  A    between atoms: _131  and  _132
REMARK   55  A    between atoms: _135  and  _137
REMARK   56  A    between atoms: _137  and  _138
REMARK   57  A    between atoms: _137  and  _140
REMARK   58  A    between atoms: _140  and  _141
REMARK   59  A    between atoms: _144  and  _146
REMARK   60  A    between atoms: _146  and  _147
REMARK   61  A    between atoms: _146  and  _149
REMARK   62  A    between atoms: _149  and  _150
REMARK   63  A    between atoms: _150  and  _151
REMARK   64  A    between atoms: _151  and  _152
REMARK   65  A    between atoms: _161  and  _163
REMARK   66  A    between atoms: _163  and  _164
REMARK   67  A    between atoms: _163  and  _166
REMARK   68  A    between atoms: _166  and  _167
REMARK   69  A    between atoms: _170  and  _172
REMARK   70  A    between atoms: _172  and  _173
REMARK   71  A    between atoms: _176  and  _178
REMARK   72  A    between atoms: _178  and  _179
REMARK   73  A    between atoms: _178  and  _181
REMARK   74  A    between atoms: _181  and  _182
REMARK   75  A    between atoms: _185  and  _187
REMARK   76  A    between atoms: _187  and  _188
REMARK   77  A    between atoms: _187  and  _190
REMARK   78  A    between atoms: _190  and  _191
REMARK   79  A    between atoms: _194  and  _196
REMARK   80  A    between atoms: _196  and  _197
REMARK   81  A    between atoms: _196  and  _199
REMARK   82  A    between atoms: _199  and  _200
REMARK   83  A    between atoms: _205  and  _207
REMARK   84  A    between atoms: _207  and  _208
REMARK   85  A    between atoms: _207  and  _210
REMARK   86  A    between atoms: _210  and  _211
REMARK   87  A    between atoms: _214  and  _216
REMARK   88  A    between atoms: _216  and  _217
REMARK   89  A    between atoms: _216  and  _219
REMARK   90  A    between atoms: _219  and  _220
REMARK   91  A    between atoms: _223  and  _225
REMARK   92  A    between atoms: _225  and  _226
REMARK   93  A    between atoms: _225  and  _228
REMARK   94  A    between atoms: _228  and  _229
REMARK   95  A    between atoms: _234  and  _235
REMARK   96  A    between atoms: _237  and  _239
REMARK   97  A    between atoms: _239  and  _240
REMARK   98  A    between atoms: _239  and  _242
REMARK   99  A    between atoms: _242  and  _243
REMARK  100  A    between atoms: _248  and  _249
REMARK  101  A    between atoms: _251  and  _253
REMARK  102  A    between atoms: _253  and  _254
REMARK  103  A    between atoms: _253  and  _256
REMARK  104  A    between atoms: _256  and  _257
REMARK  105  A    between atoms: _257  and  _258
REMARK  106  A    between atoms: _258  and  _259
REMARK  107  A    between atoms: _268  and  _270
REMARK  108  A    between atoms: _270  and  _271
REMARK  109  A    between atoms: _270  and  _273
REMARK  110  A    between atoms: _273  and  _274
REMARK  111  A    between atoms: _279  and  _280
REMARK  112  A    between atoms: _282  and  _284
REMARK  113  A    between atoms: _284  and  _285
REMARK  114  A    between atoms: _284  and  _287
REMARK  115  A    between atoms: _287  and  _288
REMARK  116  A    between atoms: _291  and  _293
REMARK  117  A    between atoms: _293  and  _294
REMARK  118  A    between atoms: _293  and  _296
REMARK  119  A    between atoms: _296  and  _297
REMARK  120  A    between atoms: _307  and  _309
REMARK  121  A    between atoms: _309  and  _310
REMARK  122  A    between atoms: _309  and  _312
REMARK  123  A    between atoms: _312  and  _313
REMARK  124  A    between atoms: _316  and  _318
REMARK  125  A    between atoms: _318  and  _319
REMARK  126  A    between atoms: _318  and  _321
REMARK  127  A    between atoms: _321  and  _322
REMARK  128  A    between atoms: _322  and  _323
REMARK  129  A    between atoms: _326  and  _328
REMARK  130  A    between atoms: _328  and  _329
REMARK  131  A    between atoms: _328  and  _331
REMARK  132  A    between atoms: _331  and  _332
REMARK  133  A    between atoms: _334  and  _336
REMARK  134  A    between atoms: _336  and  _337
REMARK  135  A    between atoms: _336  and  _339
REMARK  136  A    between atoms: _339  and  _340
REMARK  137  A    between atoms: _343  and  _345
REMARK  138  A    between atoms: _345  and  _346
REMARK  139  A    between atoms: _348  and  _350
REMARK  140  A    between atoms: _350  and  _351
REMARK  141  A    between atoms: _350  and  _353
REMARK  142  A    between atoms: _353  and  _354
REMARK  143  A    between atoms: _364  and  _366
REMARK  144  A    between atoms: _366  and  _367
REMARK  145  A    between atoms: _366  and  _369
REMARK  146  A    between atoms: _369  and  _370
REMARK  147  A    between atoms: _370  and  _371
REMARK  148  A    between atoms: _371  and  _372
REMARK  149  A    between atoms: _381  and  _383
REMARK  150  A    between atoms: _383  and  _384
REMARK  151  A    between atoms: _383  and  _386
REMARK  152  A    between atoms: _386  and  _387
REMARK  153  A    between atoms: _387  and  _388
REMARK  154  A    between atoms: _388  and  _389
REMARK  155  A    between atoms: _389  and  _390
REMARK  156  A    between atoms: _394  and  _396
REMARK  157  A    between atoms: _396  and  _397
REMARK  158  A    between atoms: _396  and  _399
REMARK  159  A    between atoms: _399  and  _400
REMARK  160  A    between atoms: _400  and  _401
REMARK  161  A    between atoms: _406  and  _408
REMARK  162  A    between atoms: _408  and  _409
REMARK  163  A    between atoms: _408  and  _411
REMARK  164  A    between atoms: _411  and  _412
REMARK                            x       y       z     vdW  Elec       q    Type
REMARK                         _______ _______ _______ _____ _____    ______ ____
ROOT
ATOM      1  CB  TRP A   2       7.012   9.539  17.431  0.00  0.00    +0.056 C 
ENDROOT
BRANCH   1   2
ATOM      2  CG  TRP A   2       7.809  10.742  16.996  0.00  0.00    -0.002 A 
ATOM      3  CD1 TRP A   2       7.347  12.026  16.853  0.00  0.00    +0.068 A 
ATOM      4  NE1 TRP A   2       8.368  12.854  16.451  0.00  0.00    -0.352 N 
ATOM      5  CE2 TRP A   2       9.521  12.124  16.347  0.00  0.00    +0.056 A 
ATOM      6  CZ2 TRP A   2      10.804  12.525  15.970  0.00  0.00    +0.017 A 
ATOM      7  CH2 TRP A   2      11.782  11.566  15.936  0.00  0.00    +0.001 A 
ATOM      8  CZ3 TRP A   2      11.504  10.227  16.269  0.00  0.00    +0.000 A 
ATOM      9  CE3 TRP A   2      10.228   9.827  16.637  0.00  0.00    +0.001 A 
ATOM     10  HE1 TRP A   2       8.279  13.872  16.257  0.00  0.00    +0.166 HD
ATOM     11  CD2 TRP A   2       9.210  10.786  16.679  0.00  0.00    +0.013 A 
ENDBRANCH   1   2
BRANCH   1  12
ATOM     12  CA  TRP A   2       7.484   8.986  18.783  0.00  0.00    +0.141 C 
BRANCH  12  15
ATOM     13  C   GLY A   1       8.971   7.261  19.626  0.00  0.00    +0.240 C 
ATOM     14  O   GLY A   1       9.059   7.798  20.684  0.00  0.00    -0.274 OA
ATOM     15  N   TRP A   2       8.261   7.754  18.613  0.00  0.00    -0.298 N 
ATOM     16  H   TRP A   2       8.258   7.263  17.696  0.00  0.00    +0.150 HD
BRANCH  13  17
ATOM     17  CA  GLY A   1       9.717   5.967  19.356  0.00  0.00    +0.169 C 
BRANCH  17  18
ATOM     18  N   GLY A   1       8.877   5.027  18.620  0.00  0.00    -0.236 NA
ATOM     19  H   GLY A   1       9.148   4.739  17.658  0.00  0.00    +0.142 HD
ENDBRANCH  17  18
ENDBRANCH  13  17
ENDBRANCH  12  15
BRANCH  12  20
ATOM     20  C   TRP A   2       6.312   8.750  19.729  0.00  0.00    +0.227 C 
ATOM     21  O   TRP A   2       6.011   9.593  20.572  0.00  0.00    -0.286 OA
ENDBRANCH  12  20
ENDBRANCH   1  12
TORSDOF 6
REMARK  Name = ../refined-set-2016/3uj9/3uj9_pocket.pdb
REMARK  164 active torsions:
REMARK  status: ('A' for Active; 'I' for Inactive)
REMARK    1  A    between atoms: _1  and  _3
REMARK    2  A    between atoms: _3  and  _4
REMARK    3  A    between atoms: _3  and  _6
REMARK    4  A    between atoms: _6  and  _7
REMARK    5  A    between atoms: _7  and  _8
REMARK    6  A    between atoms: _13  and  _15
REMARK    7  A    between atoms: _15  and  _16
REMARK    8  A    between atoms: _15  and  _18
REMARK    9  A    between atoms: _18  and  _19
REMARK   10  A    between atoms: _24  and  _25
REMARK   11  A    between atoms: _27  and  _29
REMARK   12  A    between atoms: _29  and  _30
REMARK   13  A    between atoms: _32  and  _34
REMARK   14  A    between atoms: _34  and  _35
REMARK   15  A    between atoms: _34  and  _37
REMARK   16  A    between atoms: _37  and  _38
REMARK   17  A    between atoms: _43  and  _44
REMARK   18  A    between atoms: _46  and  _48
REMARK   19  A    between atoms: _48  and  _49
REMARK   20  A    between atoms: _48  and  _51
REMARK   21  A    between atoms: _51  and  _52
REMARK   22  A    between atoms: _55  and  _57
REMARK   23  A    between atoms: _57  and  _58
REMARK   24  A    between atoms: _57  and  _60
REMARK   25  A    between atoms: _60  and  _61
REMARK   26  A    between atoms: _67  and  _69
REMARK   27  A    between atoms: _69  and  _70
REMARK   28  A    between atoms: _69  and  _72
REMARK   29  A    between atoms: _72  and  _73
REMARK   30  A    between atoms: _78  and  _79
REMARK   31  A    between atoms: _81  and  _83
REMARK   32  A    between atoms: _83  and  _84
REMARK   33  A    between atoms: _83  and  _86
REMARK   34  A    between atoms: _86  and  _87
REMARK   35  A    between atoms: _90  and  _92
REMARK   36  A    between atoms: _92  and  _93
REMARK   37  A    between atoms: _92  and  _95
REMARK   38  A    between atoms: _95  and  _96
REMARK   39  A    between atoms: _98  and  _100
REMARK   40  A    between atoms: _100  and  _101
REMARK   41  A    between atoms: _100  and  _103
REMARK   42  A    between atoms: _103  and  _104
REMARK   43  A    between atoms: _106  and  _108
REMARK   44  A    between atoms: _108  and  _109
REMARK   45  A    between atoms: _111  and  _113
REMARK   46  A    between atoms: _113  and  _114
REMARK   47  A    between atoms: _116  and  _118
REMARK   48  A    between atoms: _118  and  _119
REMARK   49  A    between atoms: _121  and  _123
REMARK   50  A    between atoms: _123  and  _124
REMARK   51  A    between atoms: _126  and  _128
REMARK   52  A    between atoms: _128  and  _129
REMARK   53  A    between atoms: _128  and  _131
REMARK   54  A    between atoms: _131  and  _132
REMARK   55  A    between atoms: _135  and  _137
REMARK   56  A    between atoms: _137  and  _138
REMARK   57  A    between atoms: _137  and  _140
REMARK   58  A    between atoms: _140  and  _141
REMARK   59  A    between atoms: _144  and  _146
REMARK   60  A    between atoms: _146  and  _147
REMARK   61  A    between atoms: _146  and  _149
REMARK   62  A    between atoms: _149  and  _150
REMARK   63  A    between atoms: _150  and  _151
REMARK   64  A    between atoms: _151  and  _152
REMARK   65  A    between atoms: _161  and  _163
REMARK   66  A    between atoms: _163  and  _164
REMARK   67  A    between atoms: _163  and  _166
REMARK   68  A    between atoms: _166  and  _167
REMARK   69  A    between atoms: _170  and  _172
REMARK   70  A    between atoms: _172  and  _173
REMARK   71  A    between atoms: _176  and  _178
REMARK   72  A    between atoms: _178  and  _179
REMARK   73  A    between atoms: _178  and  _181
REMARK   74  A    between atoms: _181  and  _182
REMARK   75  A    between atoms: _185  and  _187
REMARK   76  A    between atoms: _187  and  _188
REMARK   77  A    between atoms: _187  and  _190
REMARK   78  A    between atoms: _190  and  _191
REMARK   79  A    between atoms: _194  and  _196
REMARK   80  A    between atoms: _196  and  _197
REMARK   81  A    between atoms: _196  and  _199
REMARK   82  A    between atoms: _199  and  _200
REMARK   83  A    between atoms: _205  and  _207
REMARK   84  A    between atoms: _207  and  _208
REMARK   85  A    between atoms: _207  and  _210
REMARK   86  A    between atoms: _210  and  _211
REMARK   87  A    between atoms: _214  and  _216
REMARK   88  A    between atoms: _216  and  _217
REMARK   89  A    between atoms: _216  and  _219
REMARK   90  A    between atoms: _219  and  _220
REMARK   91  A    between atoms: _223  and  _225
REMARK   92  A    between atoms: _225  and  _226
REMARK   93  A    between atoms: _225  and  _228
REMARK   94  A    between atoms: _228  and  _229
REMARK   95  A    between atoms: _234  and  _235
REMARK   96  A    between atoms: _237  and  _239
REMARK   97  A    between atoms: _239  and  _240
REMARK   98  A    between atoms: _239  and  _242
REMARK   99  A    between atoms: _242  and  _243
REMARK  100  A    between atoms: _248  and  _249
REMARK  101  A    between atoms: _251  and  _253
REMARK  102  A    between atoms: _253  and  _254
REMARK  103  A    between atoms: _253  and  _256
REMARK  104  A    between atoms: _256  and  _257
REMARK  105  A    between atoms: _257  and  _258
REMARK  106  A    between atoms: _258  and  _259
REMARK  107  A    between atoms: _268  and  _270
REMARK  108  A    between atoms: _270  and  _271
REMARK  109  A    between atoms: _270  and  _273
REMARK  110  A    between atoms: _273  and  _274
REMARK  111  A    between atoms: _279  and  _280
REMARK  112  A    between atoms: _282  and  _284
REMARK  113  A    between atoms: _284  and  _285
REMARK  114  A    between atoms: _284  and  _287
REMARK  115  A    between atoms: _287  and  _288
REMARK  116  A    between atoms: _291  and  _293
REMARK  117  A    between atoms: _293  and  _294
REMARK  118  A    between atoms: _293  and  _296
REMARK  119  A    between atoms: _296  and  _297
REMARK  120  A    between atoms: _307  and  _309
REMARK  121  A    between atoms: _309  and  _310
REMARK  122  A    between atoms: _309  and  _312
REMARK  123  A    between atoms: _312  and  _313
REMARK  124  A    between atoms: _316  and  _318
REMARK  125  A    between atoms: _318  and  _319
REMARK  126  A    between atoms: _318  and  _321
REMARK  127  A    between atoms: _321  and  _322
REMARK  128  A    between atoms: _322  and  _323
REMARK  129  A    between atoms: _326  and  _328
REMARK  130  A    between atoms: _328  and  _329
REMARK  131  A    between atoms: _328  and  _331
REMARK  132  A    between atoms: _331  and  _332
REMARK  133  A    between atoms: _334  and  _336
REMARK  134  A    between atoms: _336  and  _337
REMARK  135  A    between atoms: _336  and  _339
REMARK  136  A    between atoms: _339  and  _340
REMARK  137  A    between atoms: _343  and  _345
REMARK  138  A    between atoms: _345  and  _346
REMARK  139  A    between atoms: _348  and  _350
REMARK  140  A    between atoms: _350  and  _351
REMARK  141  A    between atoms: _350  and  _353
REMARK  142  A    between atoms: _353  and  _354
REMARK  143  A    between atoms: _364  and  _366
REMARK  144  A    between atoms: _366  and  _367
REMARK  145  A    between atoms: _366  and  _369
REMARK  146  A    between atoms: _369  and  _370
REMARK  147  A    between atoms: _370  and  _371
REMARK  148  A    between atoms: _371  and  _372
REMARK  149  A    between atoms: _381  and  _383
REMARK  150  A    between atoms: _383  and  _384
REMARK  151  A    between atoms: _383  and  _386
REMARK  152  A    between atoms: _386  and  _387
REMARK  153  A    between atoms: _387  and  _388
REMARK  154  A    between atoms: _388  and  _389
REMARK  155  A    between atoms: _389  and  _390
REMARK  156  A    between atoms: _394  and  _396
REMARK  157  A    between atoms: _396  and  _397
REMARK  158  A    between atoms: _396  and  _399
REMARK  159  A    between atoms: _399  and  _400
REMARK  160  A    between atoms: _400  and  _401
REMARK  161  A    between atoms: _406  and  _408
REMARK  162  A    between atoms: _408  and  _409
REMARK  163  A    between atoms: _408  and  _411
REMARK  164  A    between atoms: _411  and  _412
REMARK                            x       y       z     vdW  Elec       q    Type
REMARK                         _______ _______ _______ _____ _____    ______ ____
ROOT
ATOM      1  CA  ARG A   1       6.676   6.803  23.677  0.00  0.00    +0.145 C 
ENDROOT
BRANCH   1   2
ATOM      2  C   ARG A   1       6.998   8.219  24.081  0.00  0.00    +0.238 C 
ATOM      3  O   ARG A   1       6.684   8.586  25.170  0.00  0.00    -0.274 OA
ATOM      4  N   LYS A   2       7.626   9.009  23.217  0.00  0.00    -0.298 N 
ATOM      5  H   LYS A   2       7.906   8.644  22.284  0.00  0.00    +0.150 HD
BRANCH   4   6
ATOM      6  CA  LYS A   2       7.922  10.392  23.582  0.00  0.00    +0.137 C 
BRANCH   6   7
ATOM      7  C   LYS A   2       6.659  11.196  23.867  0.00  0.00    +0.227 C 
ATOM      8  O   LYS A   2       6.656  12.025  24.699  0.00  0.00    -0.286 OA
ENDBRANCH   6   7
BRANCH   6   9
ATOM      9  CB  LYS A   2       8.785  11.073  22.496  0.00  0.00    +0.028 C 
BRANCH   9  10
ATOM     10  CG  LYS A   2      10.254  10.595  22.554  0.00  0.00    -0.000 C 
BRANCH  10  11
ATOM     11  CD  LYS A   2      11.129  11.381  21.564  0.00  0.00    -0.024 C 
BRANCH  11  12
ATOM     12  CE  LYS A   2      10.765  11.004  20.112  0.00  0.00    -0.086 C 
BRANCH  12  13
ATOM     13  NZ  LYS A   2      11.666  11.767  19.180  0.00  0.00    +0.380 N 
ATOM     14  HZ1 LYS A   2      12.656  11.516  19.375  0.00  0.00    -0.089 HD
ATOM     15  HZ2 LYS A   2      11.530  12.788  19.327  0.00  0.00    -0.089 HD
ATOM     16  HZ3 LYS A   2      11.432  11.523  18.196  0.00  0.00    -0.089 HD
ENDBRANCH  12  13
ENDBRANCH  11  12
ENDBRANCH  10  11
ENDBRANCH   9  10
ENDBRANCH   6   9
ENDBRANCH   4   6
ENDBRANCH   1   2
BRANCH   1  17
ATOM     17  N   ARG A   1       6.202   6.806  22.297  0.00  0.00    -0.238 NA
ATOM     18  H   ARG A   1       6.795   6.392  21.550  0.00  0.00    +0.142 HD
ENDBRANCH   1  17
BRANCH   1  19
ATOM     19  CB  ARG A   1       7.872   5.878  23.881  0.00  0.00    +0.030 C 
BRANCH  19  20
ATOM     20  CG  ARG A   1       8.231   5.737  25.400  0.00  0.00    +0.045 C 
BRANCH  20  21
ATOM     21  CD  ARG A   1       9.675   5.360  25.735  0.00  0.00    +0.174 C 
BRANCH  21  22
ATOM     22  NE  ARG A   1      10.602   6.226  25.017  0.00  0.00    -0.265 N 
ATOM     23  CZ  ARG A   1      10.872   7.480  25.297  0.00  0.00    +0.342 C 
ATOM     24  NH2 ARG A   1      10.370   8.109  26.339  0.00  0.00    -0.292 N 
ATOM     25 HH21 ARG A   1       9.726   7.611  26.987  0.00  0.00    +0.255 HD
ATOM     26 HH22 ARG A   1      10.617   9.104  26.515  0.00  0.00    +0.255 HD
ATOM     27  NH1 ARG A   1      11.661   8.159  24.480  0.00  0.00    -0.292 N 
ATOM     28 HH11 ARG A   1      11.888   9.153  24.683  0.00  0.00    +0.255 HD
ATOM     29 HH12 ARG A   1      12.054   7.698  23.635  0.00  0.00    +0.255 HD
ATOM     30  HE  ARG A   1      11.098   5.810  24.203  0.00  0.00    +0.259 HD
ENDBRANCH  21  22
ENDBRANCH  20  21
ENDBRANCH  19  20
ENDBRANCH   1  19
TORSDOF 13
REMARK  Name = ../refined-set-2016/3uj9/3uj9_pocket.pdb
REMARK  164 active torsions:
REMARK  status: ('A' for Active; 'I' for Inactive)
REMARK    1  A    between atoms: _1  and  _3
REMARK    2  A    between atoms: _3  and  _4
REMARK    3  A    between atoms: _3  and  _6
REMARK    4  A    between atoms: _6  and  _7
REMARK    5  A    between atoms: _7  and  _8
REMARK    6  A    between atoms: _13  and  _15
REMARK    7  A    between atoms: _15  and  _16
REMARK    8  A    between atoms: _15  and  _18
REMARK    9  A    between atoms: _18  and  _19
REMARK   10  A    between atoms: _24  and  _25
REMARK   11  A    between atoms: _27  and  _29
REMARK   12  A    between atoms: _29  and  _30
REMARK   13  A    between atoms: _32  and  _34
REMARK   14  A    between atoms: _34  and  _35
REMARK   15  A    between atoms: _34  and  _37
REMARK   16  A    between atoms: _37  and  _38
REMARK   17  A    between atoms: _43  and  _44
REMARK   18  A    between atoms: _46  and  _48
REMARK   19  A    between atoms: _48  and  _49
REMARK   20  A    between atoms: _48  and  _51
REMARK   21  A    between atoms: _51  and  _52
REMARK   22  A    between atoms: _55  and  _57
REMARK   23  A    between atoms: _57  and  _58
REMARK   24  A    between atoms: _57  and  _60
REMARK   25  A    between atoms: _60  and  _61
REMARK   26  A    between atoms: _67  and  _69
REMARK   27  A    between atoms: _69  and  _70
REMARK   28  A    between atoms: _69  and  _72
REMARK   29  A    between atoms: _72  and  _73
REMARK   30  A    between atoms: _78  and  _79
REMARK   31  A    between atoms: _81  and  _83
REMARK   32  A    between atoms: _83  and  _84
REMARK   33  A    between atoms: _83  and  _86
REMARK   34  A    between atoms: _86  and  _87
REMARK   35  A    between atoms: _90  and  _92
REMARK   36  A    between atoms: _92  and  _93
REMARK   37  A    between atoms: _92  and  _95
REMARK   38  A    between atoms: _95  and  _96
REMARK   39  A    between atoms: _98  and  _100
REMARK   40  A    between atoms: _100  and  _101
REMARK   41  A    between atoms: _100  and  _103
REMARK   42  A    between atoms: _103  and  _104
REMARK   43  A    between atoms: _106  and  _108
REMARK   44  A    between atoms: _108  and  _109
REMARK   45  A    between atoms: _111  and  _113
REMARK   46  A    between atoms: _113  and  _114
REMARK   47  A    between atoms: _116  and  _118
REMARK   48  A    between atoms: _118  and  _119
REMARK   49  A    between atoms: _121  and  _123
REMARK   50  A    between atoms: _123  and  _124
REMARK   51  A    between atoms: _126  and  _128
REMARK   52  A    between atoms: _128  and  _129
REMARK   53  A    between atoms: _128  and  _131
REMARK   54  A    between atoms: _131  and  _132
REMARK   55  A    between atoms: _135  and  _137
REMARK   56  A    between atoms: _137  and  _138
REMARK   57  A    between atoms: _137  and  _140
REMARK   58  A    between atoms: _140  and  _141
REMARK   59  A    between atoms: _144  and  _146
REMARK   60  A    between atoms: _146  and  _147
REMARK   61  A    between atoms: _146  and  _149
REMARK   62  A    between atoms: _149  and  _150
REMARK   63  A    between atoms: _150  and  _151
REMARK   64  A    between atoms: _151  and  _152
REMARK   65  A    between atoms: _161  and  _163
REMARK   66  A    between atoms: _163  and  _164
REMARK   67  A    between atoms: _163  and  _166
REMARK   68  A    between atoms: _166  and  _167
REMARK   69  A    between atoms: _170  and  _172
REMARK   70  A    between atoms: _172  and  _173
REMARK   71  A    between atoms: _176  and  _178
REMARK   72  A    between atoms: _178  and  _179
REMARK   73  A    between atoms: _178  and  _181
REMARK   74  A    between atoms: _181  and  _182
REMARK   75  A    between atoms: _185  and  _187
REMARK   76  A    between atoms: _187  and  _188
REMARK   77  A    between atoms: _187  and  _190
REMARK   78  A    between atoms: _190  and  _191
REMARK   79  A    between atoms: _194  and  _196
REMARK   80  A    between atoms: _196  and  _197
REMARK   81  A    between atoms: _196  and  _199
REMARK   82  A    between atoms: _199  and  _200
REMARK   83  A    between atoms: _205  and  _207
REMARK   84  A    between atoms: _207  and  _208
REMARK   85  A    between atoms: _207  and  _210
REMARK   86  A    between atoms: _210  and  _211
REMARK   87  A    between atoms: _214  and  _216
REMARK   88  A    between atoms: _216  and  _217
REMARK   89  A    between atoms: _216  and  _219
REMARK   90  A    between atoms: _219  and  _220
REMARK   91  A    between atoms: _223  and  _225
REMARK   92  A    between atoms: _225  and  _226
REMARK   93  A    between atoms: _225  and  _228
REMARK   94  A    between atoms: _228  and  _229
REMARK   95  A    between atoms: _234  and  _235
REMARK   96  A    between atoms: _237  and  _239
REMARK   97  A    between atoms: _239  and  _240
REMARK   98  A    between atoms: _239  and  _242
REMARK   99  A    between atoms: _242  and  _243
REMARK  100  A    between atoms: _248  and  _249
REMARK  101  A    between atoms: _251  and  _253
REMARK  102  A    between atoms: _253  and  _254
REMARK  103  A    between atoms: _253  and  _256
REMARK  104  A    between atoms: _256  and  _257
REMARK  105  A    between atoms: _257  and  _258
REMARK  106  A    between atoms: _258  and  _259
REMARK  107  A    between atoms: _268  and  _270
REMARK  108  A    between atoms: _270  and  _271
REMARK  109  A    between atoms: _270  and  _273
REMARK  110  A    between atoms: _273  and  _274
REMARK  111  A    between atoms: _279  and  _280
REMARK  112  A    between atoms: _282  and  _284
REMARK  113  A    between atoms: _284  and  _285
REMARK  114  A    between atoms: _284  and  _287
REMARK  115  A    between atoms: _287  and  _288
REMARK  116  A    between atoms: _291  and  _293
REMARK  117  A    between atoms: _293  and  _294
REMARK  118  A    between atoms: _293  and  _296
REMARK  119  A    between atoms: _296  and  _297
REMARK  120  A    between atoms: _307  and  _309
REMARK  121  A    between atoms: _309  and  _310
REMARK  122  A    between atoms: _309  and  _312
REMARK  123  A    between atoms: _312  and  _313
REMARK  124  A    between atoms: _316  and  _318
REMARK  125  A    between atoms: _318  and  _319
REMARK  126  A    between atoms: _318  and  _321
REMARK  127  A    between atoms: _321  and  _322
REMARK  128  A    between atoms: _322  and  _323
REMARK  129  A    between atoms: _326  and  _328
REMARK  130  A    between atoms: _328  and  _329
REMARK  131  A    between atoms: _328  and  _331
REMARK  132  A    between atoms: _331  and  _332
REMARK  133  A    between atoms: _334  and  _336
REMARK  134  A    between atoms: _336  and  _337
REMARK  135  A    between atoms: _336  and  _339
REMARK  136  A    between atoms: _339  and  _340
REMARK  137  A    between atoms: _343  and  _345
REMARK  138  A    between atoms: _345  and  _346
REMARK  139  A    between atoms: _348  and  _350
REMARK  140  A    between atoms: _350  and  _351
REMARK  141  A    between atoms: _350  and  _353
REMARK  142  A    between atoms: _353  and  _354
REMARK  143  A    between atoms: _364  and  _366
REMARK  144  A    between atoms: _366  and  _367
REMARK  145  A    between atoms: _366  and  _369
REMARK  146  A    between atoms: _369  and  _370
REMARK  147  A    between atoms: _370  and  _371
REMARK  148  A    between atoms: _371  and  _372
REMARK  149  A    between atoms: _381  and  _383
REMARK  150  A    between atoms: _383  and  _384
REMARK  151  A    between atoms: _383  and  _386
REMARK  152  A    between atoms: _386  and  _387
REMARK  153  A    between atoms: _387  and  _388
REMARK  154  A    between atoms: _388  and  _389
REMARK  155  A    between atoms: _389  and  _390
REMARK  156  A    between atoms: _394  and  _396
REMARK  157  A    between atoms: _396  and  _397
REMARK  158  A    between atoms: _396  and  _399
REMARK  159  A    between atoms: _399  and  _400
REMARK  160  A    between atoms: _400  and  _401
REMARK  161  A    between atoms: _406  and  _408
REMARK  162  A    between atoms: _408  and  _409
REMARK  163  A    between atoms: _408  and  _411
REMARK  164  A    between atoms: _411  and  _412
REMARK                            x       y       z     vdW  Elec       q    Type
REMARK                         _______ _______ _______ _____ _____    ______ ____
ROOT
ATOM      1  CB  GLN A   1      10.711  12.122  28.304  0.00  0.00    +0.035 C 
ENDROOT
BRANCH   1   2
ATOM      2  CA  GLN A   1      10.615  12.892  29.624  0.00  0.00    +0.134 C 
BRANCH   2   3
ATOM      3  N   GLN A   1       9.625  12.272  30.512  0.00  0.00    -0.239 NA
ATOM      4  H   GLN A   1       8.717  11.956  30.117  0.00  0.00    +0.142 HD
ENDBRANCH   2   3
BRANCH   2   5
ATOM      5  C   GLN A   1      10.177  14.312  29.425  0.00  0.00    +0.224 C 
ATOM      6  O   GLN A   1       9.060  14.570  29.140  0.00  0.00    -0.287 OA
ENDBRANCH   2   5
ENDBRANCH   1   2
BRANCH   1   7
ATOM      7  CG  GLN A   1      11.843  12.655  27.402  0.00  0.00    +0.087 C 
BRANCH   7   8
ATOM      8  CD  GLN A   1      12.223  11.732  26.252  0.00  0.00    +0.219 C 
ATOM      9  OE1 GLN A   1      11.665  10.701  26.068  0.00  0.00    -0.275 OA
ATOM     10  NE2 GLN A   1      13.231  12.165  25.489  0.00  0.00    -0.329 N 
ATOM     11 HE21 GLN A   1      13.685  13.078  25.696  0.00  0.00    +0.145 HD
ATOM     12 HE22 GLN A   1      13.562  11.589  24.689  0.00  0.00    +0.145 HD
ENDBRANCH   7   8
ENDBRANCH   1   7
TORSDOF 5
REMARK  Name = ../refined-set-2016/3uj9/3uj9_pocket.pdb
REMARK  164 active torsions:
REMARK  status: ('A' for Active; 'I' for Inactive)
REMARK    1  A    between atoms: _1  and  _3
REMARK    2  A    between atoms: _3  and  _4
REMARK    3  A    between atoms: _3  and  _6
REMARK    4  A    between atoms: _6  and  _7
REMARK    5  A    between atoms: _7  and  _8
REMARK    6  A    between atoms: _13  and  _15
REMARK    7  A    between atoms: _15  and  _16
REMARK    8  A    between atoms: _15  and  _18
REMARK    9  A    between atoms: _18  and  _19
REMARK   10  A    between atoms: _24  and  _25
REMARK   11  A    between atoms: _27  and  _29
REMARK   12  A    between atoms: _29  and  _30
REMARK   13  A    between atoms: _32  and  _34
REMARK   14  A    between atoms: _34  and  _35
REMARK   15  A    between atoms: _34  and  _37
REMARK   16  A    between atoms: _37  and  _38
REMARK   17  A    between atoms: _43  and  _44
REMARK   18  A    between atoms: _46  and  _48
REMARK   19  A    between atoms: _48  and  _49
REMARK   20  A    between atoms: _48  and  _51
REMARK   21  A    between atoms: _51  and  _52
REMARK   22  A    between atoms: _55  and  _57
REMARK   23  A    between atoms: _57  and  _58
REMARK   24  A    between atoms: _57  and  _60
REMARK   25  A    between atoms: _60  and  _61
REMARK   26  A    between atoms: _67  and  _69
REMARK   27  A    between atoms: _69  and  _70
REMARK   28  A    between atoms: _69  and  _72
REMARK   29  A    between atoms: _72  and  _73
REMARK   30  A    between atoms: _78  and  _79
REMARK   31  A    between atoms: _81  and  _83
REMARK   32  A    between atoms: _83  and  _84
REMARK   33  A    between atoms: _83  and  _86
REMARK   34  A    between atoms: _86  and  _87
REMARK   35  A    between atoms: _90  and  _92
REMARK   36  A    between atoms: _92  and  _93
REMARK   37  A    between atoms: _92  and  _95
REMARK   38  A    between atoms: _95  and  _96
REMARK   39  A    between atoms: _98  and  _100
REMARK   40  A    between atoms: _100  and  _101
REMARK   41  A    between atoms: _100  and  _103
REMARK   42  A    between atoms: _103  and  _104
REMARK   43  A    between atoms: _106  and  _108
REMARK   44  A    between atoms: _108  and  _109
REMARK   45  A    between atoms: _111  and  _113
REMARK   46  A    between atoms: _113  and  _114
REMARK   47  A    between atoms: _116  and  _118
REMARK   48  A    between atoms: _118  and  _119
REMARK   49  A    between atoms: _121  and  _123
REMARK   50  A    between atoms: _123  and  _124
REMARK   51  A    between atoms: _126  and  _128
REMARK   52  A    between atoms: _128  and  _129
REMARK   53  A    between atoms: _128  and  _131
REMARK   54  A    between atoms: _131  and  _132
REMARK   55  A    between atoms: _135  and  _137
REMARK   56  A    between atoms: _137  and  _138
REMARK   57  A    between atoms: _137  and  _140
REMARK   58  A    between atoms: _140  and  _141
REMARK   59  A    between atoms: _144  and  _146
REMARK   60  A    between atoms: _146  and  _147
REMARK   61  A    between atoms: _146  and  _149
REMARK   62  A    between atoms: _149  and  _150
REMARK   63  A    between atoms: _150  and  _151
REMARK   64  A    between atoms: _151  and  _152
REMARK   65  A    between atoms: _161  and  _163
REMARK   66  A    between atoms: _163  and  _164
REMARK   67  A    between atoms: _163  and  _166
REMARK   68  A    between atoms: _166  and  _167
REMARK   69  A    between atoms: _170  and  _172
REMARK   70  A    between atoms: _172  and  _173
REMARK   71  A    between atoms: _176  and  _178
REMARK   72  A    between atoms: _178  and  _179
REMARK   73  A    between atoms: _178  and  _181
REMARK   74  A    between atoms: _181  and  _182
REMARK   75  A    between atoms: _185  and  _187
REMARK   76  A    between atoms: _187  and  _188
REMARK   77  A    between atoms: _187  and  _190
REMARK   78  A    between atoms: _190  and  _191
REMARK   79  A    between atoms: _194  and  _196
REMARK   80  A    between atoms: _196  and  _197
REMARK   81  A    between atoms: _196  and  _199
REMARK   82  A    between atoms: _199  and  _200
REMARK   83  A    between atoms: _205  and  _207
REMARK   84  A    between atoms: _207  and  _208
REMARK   85  A    between atoms: _207  and  _210
REMARK   86  A    between atoms: _210  and  _211
REMARK   87  A    between atoms: _214  and  _216
REMARK   88  A    between atoms: _216  and  _217
REMARK   89  A    between atoms: _216  and  _219
REMARK   90  A    between atoms: _219  and  _220
REMARK   91  A    between atoms: _223  and  _225
REMARK   92  A    between atoms: _225  and  _226
REMARK   93  A    between atoms: _225  and  _228
REMARK   94  A    between atoms: _228  and  _229
REMARK   95  A    between atoms: _234  and  _235
REMARK   96  A    between atoms: _237  and  _239
REMARK   97  A    between atoms: _239  and  _240
REMARK   98  A    between atoms: _239  and  _242
REMARK   99  A    between atoms: _242  and  _243
REMARK  100  A    between atoms: _248  and  _249
REMARK  101  A    between atoms: _251  and  _253
REMARK  102  A    between atoms: _253  and  _254
REMARK  103  A    between atoms: _253  and  _256
REMARK  104  A    between atoms: _256  and  _257
REMARK  105  A    between atoms: _257  and  _258
REMARK  106  A    between atoms: _258  and  _259
REMARK  107  A    between atoms: _268  and  _270
REMARK  108  A    between atoms: _270  and  _271
REMARK  109  A    between atoms: _270  and  _273
REMARK  110  A    between atoms: _273  and  _274
REMARK  111  A    between atoms: _279  and  _280
REMARK  112  A    between atoms: _282  and  _284
REMARK  113  A    between atoms: _284  and  _285
REMARK  114  A    between atoms: _284  and  _287
REMARK  115  A    between atoms: _287  and  _288
REMARK  116  A    between atoms: _291  and  _293
REMARK  117  A    between atoms: _293  and  _294
REMARK  118  A    between atoms: _293  and  _296
REMARK  119  A    between atoms: _296  and  _297
REMARK  120  A    between atoms: _307  and  _309
REMARK  121  A    between atoms: _309  and  _310
REMARK  122  A    between atoms: _309  and  _312
REMARK  123  A    between atoms: _312  and  _313
REMARK  124  A    between atoms: _316  and  _318
REMARK  125  A    between atoms: _318  and  _319
REMARK  126  A    between atoms: _318  and  _321
REMARK  127  A    between atoms: _321  and  _322
REMARK  128  A    between atoms: _322  and  _323
REMARK  129  A    between atoms: _326  and  _328
REMARK  130  A    between atoms: _328  and  _329
REMARK  131  A    between atoms: _328  and  _331
REMARK  132  A    between atoms: _331  and  _332
REMARK  133  A    between atoms: _334  and  _336
REMARK  134  A    between atoms: _336  and  _337
REMARK  135  A    between atoms: _336  and  _339
REMARK  136  A    between atoms: _339  and  _340
REMARK  137  A    between atoms: _343  and  _345
REMARK  138  A    between atoms: _345  and  _346
REMARK  139  A    between atoms: _348  and  _350
REMARK  140  A    between atoms: _350  and  _351
REMARK  141  A    between atoms: _350  and  _353
REMARK  142  A    between atoms: _353  and  _354
REMARK  143  A    between atoms: _364  and  _366
REMARK  144  A    between atoms: _366  and  _367
REMARK  145  A    between atoms: _366  and  _369
REMARK  146  A    between atoms: _369  and  _370
REMARK  147  A    between atoms: _370  and  _371
REMARK  148  A    between atoms: _371  and  _372
REMARK  149  A    between atoms: _381  and  _383
REMARK  150  A    between atoms: _383  and  _384
REMARK  151  A    between atoms: _383  and  _386
REMARK  152  A    between atoms: _386  and  _387
REMARK  153  A    between atoms: _387  and  _388
REMARK  154  A    between atoms: _388  and  _389
REMARK  155  A    between atoms: _389  and  _390
REMARK  156  A    between atoms: _394  and  _396
REMARK  157  A    between atoms: _396  and  _397
REMARK  158  A    between atoms: _396  and  _399
REMARK  159  A    between atoms: _399  and  _400
REMARK  160  A    between atoms: _400  and  _401
REMARK  161  A    between atoms: _406  and  _408
REMARK  162  A    between atoms: _408  and  _409
REMARK  163  A    between atoms: _408  and  _411
REMARK  164  A    between atoms: _411  and  _412
REMARK                            x       y       z     vdW  Elec       q    Type
REMARK                         _______ _______ _______ _____ _____    ______ ____
ROOT
ATOM      1  CG  TRP A   1      11.955  20.009  24.699  0.00  0.00    -0.002 A 
ATOM      2  CD1 TRP A   1      13.164  19.518  24.341  0.00  0.00    +0.068 A 
ATOM      3  NE1 TRP A   1      13.596  20.131  23.185  0.00  0.00    -0.352 N 
ATOM      4  CE2 TRP A   1      12.646  21.020  22.781  0.00  0.00    +0.056 A 
ATOM      5  CZ2 TRP A   1      12.628  21.881  21.674  0.00  0.00    +0.017 A 
ATOM      6  CH2 TRP A   1      11.546  22.669  21.516  0.00  0.00    +0.001 A 
ATOM      7  CZ3 TRP A   1      10.477  22.634  22.405  0.00  0.00    +0.000 A 
ATOM      8  CE3 TRP A   1      10.500  21.809  23.527  0.00  0.00    +0.001 A 
ATOM      9  HE1 TRP A   1      14.498  19.946  22.701  0.00  0.00    +0.166 HD
ATOM     10  CD2 TRP A   1      11.600  20.976  23.717  0.00  0.00    +0.013 A 
ENDROOT
BRANCH   1  11
ATOM     11  CB  TRP A   1      11.112  19.565  25.889  0.00  0.00    +0.053 C 
BRANCH  11  12
ATOM     12  CA  TRP A   1      11.912  19.341  27.172  0.00  0.00    +0.137 C 
BRANCH  12  13
ATOM     13  N   TRP A   1      11.165  18.531  28.105  0.00  0.00    -0.239 NA
ATOM     14  H   TRP A   1      10.265  18.893  28.480  0.00  0.00    +0.142 HD
ENDBRANCH  12  13
BRANCH  12  15
ATOM     15  C   TRP A   1      12.213  20.676  27.815  0.00  0.00    +0.224 C 
ATOM     16  O   TRP A   1      11.312  21.389  28.164  0.00  0.00    -0.287 OA
ENDBRANCH  12  15
ENDBRANCH  11  12
ENDBRANCH   1  11
TORSDOF 4
REMARK  Name = ../refined-set-2016/3uj9/3uj9_pocket.pdb
REMARK  164 active torsions:
REMARK  status: ('A' for Active; 'I' for Inactive)
REMARK    1  A    between atoms: _1  and  _3
REMARK    2  A    between atoms: _3  and  _4
REMARK    3  A    between atoms: _3  and  _6
REMARK    4  A    between atoms: _6  and  _7
REMARK    5  A    between atoms: _7  and  _8
REMARK    6  A    between atoms: _13  and  _15
REMARK    7  A    between atoms: _15  and  _16
REMARK    8  A    between atoms: _15  and  _18
REMARK    9  A    between atoms: _18  and  _19
REMARK   10  A    between atoms: _24  and  _25
REMARK   11  A    between atoms: _27  and  _29
REMARK   12  A    between atoms: _29  and  _30
REMARK   13  A    between atoms: _32  and  _34
REMARK   14  A    between atoms: _34  and  _35
REMARK   15  A    between atoms: _34  and  _37
REMARK   16  A    between atoms: _37  and  _38
REMARK   17  A    between atoms: _43  and  _44
REMARK   18  A    between atoms: _46  and  _48
REMARK   19  A    between atoms: _48  and  _49
REMARK   20  A    between atoms: _48  and  _51
REMARK   21  A    between atoms: _51  and  _52
REMARK   22  A    between atoms: _55  and  _57
REMARK   23  A    between atoms: _57  and  _58
REMARK   24  A    between atoms: _57  and  _60
REMARK   25  A    between atoms: _60  and  _61
REMARK   26  A    between atoms: _67  and  _69
REMARK   27  A    between atoms: _69  and  _70
REMARK   28  A    between atoms: _69  and  _72
REMARK   29  A    between atoms: _72  and  _73
REMARK   30  A    between atoms: _78  and  _79
REMARK   31  A    between atoms: _81  and  _83
REMARK   32  A    between atoms: _83  and  _84
REMARK   33  A    between atoms: _83  and  _86
REMARK   34  A    between atoms: _86  and  _87
REMARK   35  A    between atoms: _90  and  _92
REMARK   36  A    between atoms: _92  and  _93
REMARK   37  A    between atoms: _92  and  _95
REMARK   38  A    between atoms: _95  and  _96
REMARK   39  A    between atoms: _98  and  _100
REMARK   40  A    between atoms: _100  and  _101
REMARK   41  A    between atoms: _100  and  _103
REMARK   42  A    between atoms: _103  and  _104
REMARK   43  A    between atoms: _106  and  _108
REMARK   44  A    between atoms: _108  and  _109
REMARK   45  A    between atoms: _111  and  _113
REMARK   46  A    between atoms: _113  and  _114
REMARK   47  A    between atoms: _116  and  _118
REMARK   48  A    between atoms: _118  and  _119
REMARK   49  A    between atoms: _121  and  _123
REMARK   50  A    between atoms: _123  and  _124
REMARK   51  A    between atoms: _126  and  _128
REMARK   52  A    between atoms: _128  and  _129
REMARK   53  A    between atoms: _128  and  _131
REMARK   54  A    between atoms: _131  and  _132
REMARK   55  A    between atoms: _135  and  _137
REMARK   56  A    between atoms: _137  and  _138
REMARK   57  A    between atoms: _137  and  _140
REMARK   58  A    between atoms: _140  and  _141
REMARK   59  A    between atoms: _144  and  _146
REMARK   60  A    between atoms: _146  and  _147
REMARK   61  A    between atoms: _146  and  _149
REMARK   62  A    between atoms: _149  and  _150
REMARK   63  A    between atoms: _150  and  _151
REMARK   64  A    between atoms: _151  and  _152
REMARK   65  A    between atoms: _161  and  _163
REMARK   66  A    between atoms: _163  and  _164
REMARK   67  A    between atoms: _163  and  _166
REMARK   68  A    between atoms: _166  and  _167
REMARK   69  A    between atoms: _170  and  _172
REMARK   70  A    between atoms: _172  and  _173
REMARK   71  A    between atoms: _176  and  _178
REMARK   72  A    between atoms: _178  and  _179
REMARK   73  A    between atoms: _178  and  _181
REMARK   74  A    between atoms: _181  and  _182
REMARK   75  A    between atoms: _185  and  _187
REMARK   76  A    between atoms: _187  and  _188
REMARK   77  A    between atoms: _187  and  _190
REMARK   78  A    between atoms: _190  and  _191
REMARK   79  A    between atoms: _194  and  _196
REMARK   80  A    between atoms: _196  and  _197
REMARK   81  A    between atoms: _196  and  _199
REMARK   82  A    between atoms: _199  and  _200
REMARK   83  A    between atoms: _205  and  _207
REMARK   84  A    between atoms: _207  and  _208
REMARK   85  A    between atoms: _207  and  _210
REMARK   86  A    between atoms: _210  and  _211
REMARK   87  A    between atoms: _214  and  _216
REMARK   88  A    between atoms: _216  and  _217
REMARK   89  A    between atoms: _216  and  _219
REMARK   90  A    between atoms: _219  and  _220
REMARK   91  A    between atoms: _223  and  _225
REMARK   92  A    between atoms: _225  and  _226
REMARK   93  A    between atoms: _225  and  _228
REMARK   94  A    between atoms: _228  and  _229
REMARK   95  A    between atoms: _234  and  _235
REMARK   96  A    between atoms: _237  and  _239
REMARK   97  A    between atoms: _239  and  _240
REMARK   98  A    between atoms: _239  and  _242
REMARK   99  A    between atoms: _242  and  _243
REMARK  100  A    between atoms: _248  and  _249
REMARK  101  A    between atoms: _251  and  _253
REMARK  102  A    between atoms: _253  and  _254
REMARK  103  A    between atoms: _253  and  _256
REMARK  104  A    between atoms: _256  and  _257
REMARK  105  A    between atoms: _257  and  _258
REMARK  106  A    between atoms: _258  and  _259
REMARK  107  A    between atoms: _268  and  _270
REMARK  108  A    between atoms: _270  and  _271
REMARK  109  A    between atoms: _270  and  _273
REMARK  110  A    between atoms: _273  and  _274
REMARK  111  A    between atoms: _279  and  _280
REMARK  112  A    between atoms: _282  and  _284
REMARK  113  A    between atoms: _284  and  _285
REMARK  114  A    between atoms: _284  and  _287
REMARK  115  A    between atoms: _287  and  _288
REMARK  116  A    between atoms: _291  and  _293
REMARK  117  A    between atoms: _293  and  _294
REMARK  118  A    between atoms: _293  and  _296
REMARK  119  A    between atoms: _296  and  _297
REMARK  120  A    between atoms: _307  and  _309
REMARK  121  A    between atoms: _309  and  _310
REMARK  122  A    between atoms: _309  and  _312
REMARK  123  A    between atoms: _312  and  _313
REMARK  124  A    between atoms: _316  and  _318
REMARK  125  A    between atoms: _318  and  _319
REMARK  126  A    between atoms: _318  and  _321
REMARK  127  A    between atoms: _321  and  _322
REMARK  128  A    between atoms: _322  and  _323
REMARK  129  A    between atoms: _326  and  _328
REMARK  130  A    between atoms: _328  and  _329
REMARK  131  A    between atoms: _328  and  _331
REMARK  132  A    between atoms: _331  and  _332
REMARK  133  A    between atoms: _334  and  _336
REMARK  134  A    between atoms: _336  and  _337
REMARK  135  A    between atoms: _336  and  _339
REMARK  136  A    between atoms: _339  and  _340
REMARK  137  A    between atoms: _343  and  _345
REMARK  138  A    between atoms: _345  and  _346
REMARK  139  A    between atoms: _348  and  _350
REMARK  140  A    between atoms: _350  and  _351
REMARK  141  A    between atoms: _350  and  _353
REMARK  142  A    between atoms: _353  and  _354
REMARK  143  A    between atoms: _364  and  _366
REMARK  144  A    between atoms: _366  and  _367
REMARK  145  A    between atoms: _366  and  _369
REMARK  146  A    between atoms: _369  and  _370
REMARK  147  A    between atoms: _370  and  _371
REMARK  148  A    between atoms: _371  and  _372
REMARK  149  A    between atoms: _381  and  _383
REMARK  150  A    between atoms: _383  and  _384
REMARK  151  A    between atoms: _383  and  _386
REMARK  152  A    between atoms: _386  and  _387
REMARK  153  A    between atoms: _387  and  _388
REMARK  154  A    between atoms: _388  and  _389
REMARK  155  A    between atoms: _389  and  _390
REMARK  156  A    between atoms: _394  and  _396
REMARK  157  A    between atoms: _396  and  _397
REMARK  158  A    between atoms: _396  and  _399
REMARK  159  A    between atoms: _399  and  _400
REMARK  160  A    between atoms: _400  and  _401
REMARK  161  A    between atoms: _406  and  _408
REMARK  162  A    between atoms: _408  and  _409
REMARK  163  A    between atoms: _408  and  _411
REMARK  164  A    between atoms: _411  and  _412
REMARK                            x       y       z     vdW  Elec       q    Type
REMARK                         _______ _______ _______ _____ _____    ______ ____
ROOT
ATOM      1  O   HOH     1      12.691   6.399  17.198  0.00  0.00    +0.000 OA
ENDROOT
TORSDOF 0
REMARK  Name = ../refined-set-2016/3uj9/3uj9_pocket.pdb
REMARK  164 active torsions:
REMARK  status: ('A' for Active; 'I' for Inactive)
REMARK    1  A    between atoms: _1  and  _3
REMARK    2  A    between atoms: _3  and  _4
REMARK    3  A    between atoms: _3  and  _6
REMARK    4  A    between atoms: _6  and  _7
REMARK    5  A    between atoms: _7  and  _8
REMARK    6  A    between atoms: _13  and  _15
REMARK    7  A    between atoms: _15  and  _16
REMARK    8  A    between atoms: _15  and  _18
REMARK    9  A    between atoms: _18  and  _19
REMARK   10  A    between atoms: _24  and  _25
REMARK   11  A    between atoms: _27  and  _29
REMARK   12  A    between atoms: _29  and  _30
REMARK   13  A    between atoms: _32  and  _34
REMARK   14  A    between atoms: _34  and  _35
REMARK   15  A    between atoms: _34  and  _37
REMARK   16  A    between atoms: _37  and  _38
REMARK   17  A    between atoms: _43  and  _44
REMARK   18  A    between atoms: _46  and  _48
REMARK   19  A    between atoms: _48  and  _49
REMARK   20  A    between atoms: _48  and  _51
REMARK   21  A    between atoms: _51  and  _52
REMARK   22  A    between atoms: _55  and  _57
REMARK   23  A    between atoms: _57  and  _58
REMARK   24  A    between atoms: _57  and  _60
REMARK   25  A    between atoms: _60  and  _61
REMARK   26  A    between atoms: _67  and  _69
REMARK   27  A    between atoms: _69  and  _70
REMARK   28  A    between atoms: _69  and  _72
REMARK   29  A    between atoms: _72  and  _73
REMARK   30  A    between atoms: _78  and  _79
REMARK   31  A    between atoms: _81  and  _83
REMARK   32  A    between atoms: _83  and  _84
REMARK   33  A    between atoms: _83  and  _86
REMARK   34  A    between atoms: _86  and  _87
REMARK   35  A    between atoms: _90  and  _92
REMARK   36  A    between atoms: _92  and  _93
REMARK   37  A    between atoms: _92  and  _95
REMARK   38  A    between atoms: _95  and  _96
REMARK   39  A    between atoms: _98  and  _100
REMARK   40  A    between atoms: _100  and  _101
REMARK   41  A    between atoms: _100  and  _103
REMARK   42  A    between atoms: _103  and  _104
REMARK   43  A    between atoms: _106  and  _108
REMARK   44  A    between atoms: _108  and  _109
REMARK   45  A    between atoms: _111  and  _113
REMARK   46  A    between atoms: _113  and  _114
REMARK   47  A    between atoms: _116  and  _118
REMARK   48  A    between atoms: _118  and  _119
REMARK   49  A    between atoms: _121  and  _123
REMARK   50  A    between atoms: _123  and  _124
REMARK   51  A    between atoms: _126  and  _128
REMARK   52  A    between atoms: _128  and  _129
REMARK   53  A    between atoms: _128  and  _131
REMARK   54  A    between atoms: _131  and  _132
REMARK   55  A    between atoms: _135  and  _137
REMARK   56  A    between atoms: _137  and  _138
REMARK   57  A    between atoms: _137  and  _140
REMARK   58  A    between atoms: _140  and  _141
REMARK   59  A    between atoms: _144  and  _146
REMARK   60  A    between atoms: _146  and  _147
REMARK   61  A    between atoms: _146  and  _149
REMARK   62  A    between atoms: _149  and  _150
REMARK   63  A    between atoms: _150  and  _151
REMARK   64  A    between atoms: _151  and  _152
REMARK   65  A    between atoms: _161  and  _163
REMARK   66  A    between atoms: _163  and  _164
REMARK   67  A    between atoms: _163  and  _166
REMARK   68  A    between atoms: _166  and  _167
REMARK   69  A    between atoms: _170  and  _172
REMARK   70  A    between atoms: _172  and  _173
REMARK   71  A    between atoms: _176  and  _178
REMARK   72  A    between atoms: _178  and  _179
REMARK   73  A    between atoms: _178  and  _181
REMARK   74  A    between atoms: _181  and  _182
REMARK   75  A    between atoms: _185  and  _187
REMARK   76  A    between atoms: _187  and  _188
REMARK   77  A    between atoms: _187  and  _190
REMARK   78  A    between atoms: _190  and  _191
REMARK   79  A    between atoms: _194  and  _196
REMARK   80  A    between atoms: _196  and  _197
REMARK   81  A    between atoms: _196  and  _199
REMARK   82  A    between atoms: _199  and  _200
REMARK   83  A    between atoms: _205  and  _207
REMARK   84  A    between atoms: _207  and  _208
REMARK   85  A    between atoms: _207  and  _210
REMARK   86  A    between atoms: _210  and  _211
REMARK   87  A    between atoms: _214  and  _216
REMARK   88  A    between atoms: _216  and  _217
REMARK   89  A    between atoms: _216  and  _219
REMARK   90  A    between atoms: _219  and  _220
REMARK   91  A    between atoms: _223  and  _225
REMARK   92  A    between atoms: _225  and  _226
REMARK   93  A    between atoms: _225  and  _228
REMARK   94  A    between atoms: _228  and  _229
REMARK   95  A    between atoms: _234  and  _235
REMARK   96  A    between atoms: _237  and  _239
REMARK   97  A    between atoms: _239  and  _240
REMARK   98  A    between atoms: _239  and  _242
REMARK   99  A    between atoms: _242  and  _243
REMARK  100  A    between atoms: _248  and  _249
REMARK  101  A    between atoms: _251  and  _253
REMARK  102  A    between atoms: _253  and  _254
REMARK  103  A    between atoms: _253  and  _256
REMARK  104  A    between atoms: _256  and  _257
REMARK  105  A    between atoms: _257  and  _258
REMARK  106  A    between atoms: _258  and  _259
REMARK  107  A    between atoms: _268  and  _270
REMARK  108  A    between atoms: _270  and  _271
REMARK  109  A    between atoms: _270  and  _273
REMARK  110  A    between atoms: _273  and  _274
REMARK  111  A    between atoms: _279  and  _280
REMARK  112  A    between atoms: _282  and  _284
REMARK  113  A    between atoms: _284  and  _285
REMARK  114  A    between atoms: _284  and  _287
REMARK  115  A    between atoms: _287  and  _288
REMARK  116  A    between atoms: _291  and  _293
REMARK  117  A    between atoms: _293  and  _294
REMARK  118  A    between atoms: _293  and  _296
REMARK  119  A    between atoms: _296  and  _297
REMARK  120  A    between atoms: _307  and  _309
REMARK  121  A    between atoms: _309  and  _310
REMARK  122  A    between atoms: _309  and  _312
REMARK  123  A    between atoms: _312  and  _313
REMARK  124  A    between atoms: _316  and  _318
REMARK  125  A    between atoms: _318  and  _319
REMARK  126  A    between atoms: _318  and  _321
REMARK  127  A    between atoms: _321  and  _322
REMARK  128  A    between atoms: _322  and  _323
REMARK  129  A    between atoms: _326  and  _328
REMARK  130  A    between atoms: _328  and  _329
REMARK  131  A    between atoms: _328  and  _331
REMARK  132  A    between atoms: _331  and  _332
REMARK  133  A    between atoms: _334  and  _336
REMARK  134  A    between atoms: _336  and  _337
REMARK  135  A    between atoms: _336  and  _339
REMARK  136  A    between atoms: _339  and  _340
REMARK  137  A    between atoms: _343  and  _345
REMARK  138  A    between atoms: _345  and  _346
REMARK  139  A    between atoms: _348  and  _350
REMARK  140  A    between atoms: _350  and  _351
REMARK  141  A    between atoms: _350  and  _353
REMARK  142  A    between atoms: _353  and  _354
REMARK  143  A    between atoms: _364  and  _366
REMARK  144  A    between atoms: _366  and  _367
REMARK  145  A    between atoms: _366  and  _369
REMARK  146  A    between atoms: _369  and  _370
REMARK  147  A    between atoms: _370  and  _371
REMARK  148  A    between atoms: _371  and  _372
REMARK  149  A    between atoms: _381  and  _383
REMARK  150  A    between atoms: _383  and  _384
REMARK  151  A    between atoms: _383  and  _386
REMARK  152  A    between atoms: _386  and  _387
REMARK  153  A    between atoms: _387  and  _388
REMARK  154  A    between atoms: _388  and  _389
REMARK  155  A    between atoms: _389  and  _390
REMARK  156  A    between atoms: _394  and  _396
REMARK  157  A    between atoms: _396  and  _397
REMARK  158  A    between atoms: _396  and  _399
REMARK  159  A    between atoms: _399  and  _400
REMARK  160  A    between atoms: _400  and  _401
REMARK  161  A    between atoms: _406  and  _408
REMARK  162  A    between atoms: _408  and  _409
REMARK  163  A    between atoms: _408  and  _411
REMARK  164  A    between atoms: _411  and  _412
REMARK                            x       y       z     vdW  Elec       q    Type
REMARK                         _______ _______ _______ _____ _____    ______ ____
ROOT
ATOM      1  O   HOH     1      12.779   4.723  20.689  0.00  0.00    +0.000 OA
ENDROOT
TORSDOF 0
REMARK  Name = ../refined-set-2016/3uj9/3uj9_pocket.pdb
REMARK  164 active torsions:
REMARK  status: ('A' for Active; 'I' for Inactive)
REMARK    1  A    between atoms: _1  and  _3
REMARK    2  A    between atoms: _3  and  _4
REMARK    3  A    between atoms: _3  and  _6
REMARK    4  A    between atoms: _6  and  _7
REMARK    5  A    between atoms: _7  and  _8
REMARK    6  A    between atoms: _13  and  _15
REMARK    7  A    between atoms: _15  and  _16
REMARK    8  A    between atoms: _15  and  _18
REMARK    9  A    between atoms: _18  and  _19
REMARK   10  A    between atoms: _24  and  _25
REMARK   11  A    between atoms: _27  and  _29
REMARK   12  A    between atoms: _29  and  _30
REMARK   13  A    between atoms: _32  and  _34
REMARK   14  A    between atoms: _34  and  _35
REMARK   15  A    between atoms: _34  and  _37
REMARK   16  A    between atoms: _37  and  _38
REMARK   17  A    between atoms: _43  and  _44
REMARK   18  A    between atoms: _46  and  _48
REMARK   19  A    between atoms: _48  and  _49
REMARK   20  A    between atoms: _48  and  _51
REMARK   21  A    between atoms: _51  and  _52
REMARK   22  A    between atoms: _55  and  _57
REMARK   23  A    between atoms: _57  and  _58
REMARK   24  A    between atoms: _57  and  _60
REMARK   25  A    between atoms: _60  and  _61
REMARK   26  A    between atoms: _67  and  _69
REMARK   27  A    between atoms: _69  and  _70
REMARK   28  A    between atoms: _69  and  _72
REMARK   29  A    between atoms: _72  and  _73
REMARK   30  A    between atoms: _78  and  _79
REMARK   31  A    between atoms: _81  and  _83
REMARK   32  A    between atoms: _83  and  _84
REMARK   33  A    between atoms: _83  and  _86
REMARK   34  A    between atoms: _86  and  _87
REMARK   35  A    between atoms: _90  and  _92
REMARK   36  A    between atoms: _92  and  _93
REMARK   37  A    between atoms: _92  and  _95
REMARK   38  A    between atoms: _95  and  _96
REMARK   39  A    between atoms: _98  and  _100
REMARK   40  A    between atoms: _100  and  _101
REMARK   41  A    between atoms: _100  and  _103
REMARK   42  A    between atoms: _103  and  _104
REMARK   43  A    between atoms: _106  and  _108
REMARK   44  A    between atoms: _108  and  _109
REMARK   45  A    between atoms: _111  and  _113
REMARK   46  A    between atoms: _113  and  _114
REMARK   47  A    between atoms: _116  and  _118
REMARK   48  A    between atoms: _118  and  _119
REMARK   49  A    between atoms: _121  and  _123
REMARK   50  A    between atoms: _123  and  _124
REMARK   51  A    between atoms: _126  and  _128
REMARK   52  A    between atoms: _128  and  _129
REMARK   53  A    between atoms: _128  and  _131
REMARK   54  A    between atoms: _131  and  _132
REMARK   55  A    between atoms: _135  and  _137
REMARK   56  A    between atoms: _137  and  _138
REMARK   57  A    between atoms: _137  and  _140
REMARK   58  A    between atoms: _140  and  _141
REMARK   59  A    between atoms: _144  and  _146
REMARK   60  A    between atoms: _146  and  _147
REMARK   61  A    between atoms: _146  and  _149
REMARK   62  A    between atoms: _149  and  _150
REMARK   63  A    between atoms: _150  and  _151
REMARK   64  A    between atoms: _151  and  _152
REMARK   65  A    between atoms: _161  and  _163
REMARK   66  A    between atoms: _163  and  _164
REMARK   67  A    between atoms: _163  and  _166
REMARK   68  A    between atoms: _166  and  _167
REMARK   69  A    between atoms: _170  and  _172
REMARK   70  A    between atoms: _172  and  _173
REMARK   71  A    between atoms: _176  and  _178
REMARK   72  A    between atoms: _178  and  _179
REMARK   73  A    between atoms: _178  and  _181
REMARK   74  A    between atoms: _181  and  _182
REMARK   75  A    between atoms: _185  and  _187
REMARK   76  A    between atoms: _187  and  _188
REMARK   77  A    between atoms: _187  and  _190
REMARK   78  A    between atoms: _190  and  _191
REMARK   79  A    between atoms: _194  and  _196
REMARK   80  A    between atoms: _196  and  _197
REMARK   81  A    between atoms: _196  and  _199
REMARK   82  A    between atoms: _199  and  _200
REMARK   83  A    between atoms: _205  and  _207
REMARK   84  A    between atoms: _207  and  _208
REMARK   85  A    between atoms: _207  and  _210
REMARK   86  A    between atoms: _210  and  _211
REMARK   87  A    between atoms: _214  and  _216
REMARK   88  A    between atoms: _216  and  _217
REMARK   89  A    between atoms: _216  and  _219
REMARK   90  A    between atoms: _219  and  _220
REMARK   91  A    between atoms: _223  and  _225
REMARK   92  A    between atoms: _225  and  _226
REMARK   93  A    between atoms: _225  and  _228
REMARK   94  A    between atoms: _228  and  _229
REMARK   95  A    between atoms: _234  and  _235
REMARK   96  A    between atoms: _237  and  _239
REMARK   97  A    between atoms: _239  and  _240
REMARK   98  A    between atoms: _239  and  _242
REMARK   99  A    between atoms: _242  and  _243
REMARK  100  A    between atoms: _248  and  _249
REMARK  101  A    between atoms: _251  and  _253
REMARK  102  A    between atoms: _253  and  _254
REMARK  103  A    between atoms: _253  and  _256
REMARK  104  A    between atoms: _256  and  _257
REMARK  105  A    between atoms: _257  and  _258
REMARK  106  A    between atoms: _258  and  _259
REMARK  107  A    between atoms: _268  and  _270
REMARK  108  A    between atoms: _270  and  _271
REMARK  109  A    between atoms: _270  and  _273
REMARK  110  A    between atoms: _273  and  _274
REMARK  111  A    between atoms: _279  and  _280
REMARK  112  A    between atoms: _282  and  _284
REMARK  113  A    between atoms: _284  and  _285
REMARK  114  A    between atoms: _284  and  _287
REMARK  115  A    between atoms: _287  and  _288
REMARK  116  A    between atoms: _291  and  _293
REMARK  117  A    between atoms: _293  and  _294
REMARK  118  A    between atoms: _293  and  _296
REMARK  119  A    between atoms: _296  and  _297
REMARK  120  A    between atoms: _307  and  _309
REMARK  121  A    between atoms: _309  and  _310
REMARK  122  A    between atoms: _309  and  _312
REMARK  123  A    between atoms: _312  and  _313
REMARK  124  A    between atoms: _316  and  _318
REMARK  125  A    between atoms: _318  and  _319
REMARK  126  A    between atoms: _318  and  _321
REMARK  127  A    between atoms: _321  and  _322
REMARK  128  A    between atoms: _322  and  _323
REMARK  129  A    between atoms: _326  and  _328
REMARK  130  A    between atoms: _328  and  _329
REMARK  131  A    between atoms: _328  and  _331
REMARK  132  A    between atoms: _331  and  _332
REMARK  133  A    between atoms: _334  and  _336
REMARK  134  A    between atoms: _336  and  _337
REMARK  135  A    between atoms: _336  and  _339
REMARK  136  A    between atoms: _339  and  _340
REMARK  137  A    between atoms: _343  and  _345
REMARK  138  A    between atoms: _345  and  _346
REMARK  139  A    between atoms: _348  and  _350
REMARK  140  A    between atoms: _350  and  _351
REMARK  141  A    between atoms: _350  and  _353
REMARK  142  A    between atoms: _353  and  _354
REMARK  143  A    between atoms: _364  and  _366
REMARK  144  A    between atoms: _366  and  _367
REMARK  145  A    between atoms: _366  and  _369
REMARK  146  A    between atoms: _369  and  _370
REMARK  147  A    between atoms: _370  and  _371
REMARK  148  A    between atoms: _371  and  _372
REMARK  149  A    between atoms: _381  and  _383
REMARK  150  A    between atoms: _383  and  _384
REMARK  151  A    between atoms: _383  and  _386
REMARK  152  A    between atoms: _386  and  _387
REMARK  153  A    between atoms: _387  and  _388
REMARK  154  A    between atoms: _388  and  _389
REMARK  155  A    between atoms: _389  and  _390
REMARK  156  A    between atoms: _394  and  _396
REMARK  157  A    between atoms: _396  and  _397
REMARK  158  A    between atoms: _396  and  _399
REMARK  159  A    between atoms: _399  and  _400
REMARK  160  A    between atoms: _400  and  _401
REMARK  161  A    between atoms: _406  and  _408
REMARK  162  A    between atoms: _408  and  _409
REMARK  163  A    between atoms: _408  and  _411
REMARK  164  A    between atoms: _411  and  _412
REMARK                            x       y       z     vdW  Elec       q    Type
REMARK                         _______ _______ _______ _____ _____    ______ ____
ROOT
ATOM      1  O   HOH     1      15.815   2.736  19.746  0.00  0.00    +0.000 OA
ENDROOT
TORSDOF 0
REMARK  Name = ../refined-set-2016/3uj9/3uj9_pocket.pdb
REMARK  164 active torsions:
REMARK  status: ('A' for Active; 'I' for Inactive)
REMARK    1  A    between atoms: _1  and  _3
REMARK    2  A    between atoms: _3  and  _4
REMARK    3  A    between atoms: _3  and  _6
REMARK    4  A    between atoms: _6  and  _7
REMARK    5  A    between atoms: _7  and  _8
REMARK    6  A    between atoms: _13  and  _15
REMARK    7  A    between atoms: _15  and  _16
REMARK    8  A    between atoms: _15  and  _18
REMARK    9  A    between atoms: _18  and  _19
REMARK   10  A    between atoms: _24  and  _25
REMARK   11  A    between atoms: _27  and  _29
REMARK   12  A    between atoms: _29  and  _30
REMARK   13  A    between atoms: _32  and  _34
REMARK   14  A    between atoms: _34  and  _35
REMARK   15  A    between atoms: _34  and  _37
REMARK   16  A    between atoms: _37  and  _38
REMARK   17  A    between atoms: _43  and  _44
REMARK   18  A    between atoms: _46  and  _48
REMARK   19  A    between atoms: _48  and  _49
REMARK   20  A    between atoms: _48  and  _51
REMARK   21  A    between atoms: _51  and  _52
REMARK   22  A    between atoms: _55  and  _57
REMARK   23  A    between atoms: _57  and  _58
REMARK   24  A    between atoms: _57  and  _60
REMARK   25  A    between atoms: _60  and  _61
REMARK   26  A    between atoms: _67  and  _69
REMARK   27  A    between atoms: _69  and  _70
REMARK   28  A    between atoms: _69  and  _72
REMARK   29  A    between atoms: _72  and  _73
REMARK   30  A    between atoms: _78  and  _79
REMARK   31  A    between atoms: _81  and  _83
REMARK   32  A    between atoms: _83  and  _84
REMARK   33  A    between atoms: _83  and  _86
REMARK   34  A    between atoms: _86  and  _87
REMARK   35  A    between atoms: _90  and  _92
REMARK   36  A    between atoms: _92  and  _93
REMARK   37  A    between atoms: _92  and  _95
REMARK   38  A    between atoms: _95  and  _96
REMARK   39  A    between atoms: _98  and  _100
REMARK   40  A    between atoms: _100  and  _101
REMARK   41  A    between atoms: _100  and  _103
REMARK   42  A    between atoms: _103  and  _104
REMARK   43  A    between atoms: _106  and  _108
REMARK   44  A    between atoms: _108  and  _109
REMARK   45  A    between atoms: _111  and  _113
REMARK   46  A    between atoms: _113  and  _114
REMARK   47  A    between atoms: _116  and  _118
REMARK   48  A    between atoms: _118  and  _119
REMARK   49  A    between atoms: _121  and  _123
REMARK   50  A    between atoms: _123  and  _124
REMARK   51  A    between atoms: _126  and  _128
REMARK   52  A    between atoms: _128  and  _129
REMARK   53  A    between atoms: _128  and  _131
REMARK   54  A    between atoms: _131  and  _132
REMARK   55  A    between atoms: _135  and  _137
REMARK   56  A    between atoms: _137  and  _138
REMARK   57  A    between atoms: _137  and  _140
REMARK   58  A    between atoms: _140  and  _141
REMARK   59  A    between atoms: _144  and  _146
REMARK   60  A    between atoms: _146  and  _147
REMARK   61  A    between atoms: _146  and  _149
REMARK   62  A    between atoms: _149  and  _150
REMARK   63  A    between atoms: _150  and  _151
REMARK   64  A    between atoms: _151  and  _152
REMARK   65  A    between atoms: _161  and  _163
REMARK   66  A    between atoms: _163  and  _164
REMARK   67  A    between atoms: _163  and  _166
REMARK   68  A    between atoms: _166  and  _167
REMARK   69  A    between atoms: _170  and  _172
REMARK   70  A    between atoms: _172  and  _173
REMARK   71  A    between atoms: _176  and  _178
REMARK   72  A    between atoms: _178  and  _179
REMARK   73  A    between atoms: _178  and  _181
REMARK   74  A    between atoms: _181  and  _182
REMARK   75  A    between atoms: _185  and  _187
REMARK   76  A    between atoms: _187  and  _188
REMARK   77  A    between atoms: _187  and  _190
REMARK   78  A    between atoms: _190  and  _191
REMARK   79  A    between atoms: _194  and  _196
REMARK   80  A    between atoms: _196  and  _197
REMARK   81  A    between atoms: _196  and  _199
REMARK   82  A    between atoms: _199  and  _200
REMARK   83  A    between atoms: _205  and  _207
REMARK   84  A    between atoms: _207  and  _208
REMARK   85  A    between atoms: _207  and  _210
REMARK   86  A    between atoms: _210  and  _211
REMARK   87  A    between atoms: _214  and  _216
REMARK   88  A    between atoms: _216  and  _217
REMARK   89  A    between atoms: _216  and  _219
REMARK   90  A    between atoms: _219  and  _220
REMARK   91  A    between atoms: _223  and  _225
REMARK   92  A    between atoms: _225  and  _226
REMARK   93  A    between atoms: _225  and  _228
REMARK   94  A    between atoms: _228  and  _229
REMARK   95  A    between atoms: _234  and  _235
REMARK   96  A    between atoms: _237  and  _239
REMARK   97  A    between atoms: _239  and  _240
REMARK   98  A    between atoms: _239  and  _242
REMARK   99  A    between atoms: _242  and  _243
REMARK  100  A    between atoms: _248  and  _249
REMARK  101  A    between atoms: _251  and  _253
REMARK  102  A    between atoms: _253  and  _254
REMARK  103  A    between atoms: _253  and  _256
REMARK  104  A    between atoms: _256  and  _257
REMARK  105  A    between atoms: _257  and  _258
REMARK  106  A    between atoms: _258  and  _259
REMARK  107  A    between atoms: _268  and  _270
REMARK  108  A    between atoms: _270  and  _271
REMARK  109  A    between atoms: _270  and  _273
REMARK  110  A    between atoms: _273  and  _274
REMARK  111  A    between atoms: _279  and  _280
REMARK  112  A    between atoms: _282  and  _284
REMARK  113  A    between atoms: _284  and  _285
REMARK  114  A    between atoms: _284  and  _287
REMARK  115  A    between atoms: _287  and  _288
REMARK  116  A    between atoms: _291  and  _293
REMARK  117  A    between atoms: _293  and  _294
REMARK  118  A    between atoms: _293  and  _296
REMARK  119  A    between atoms: _296  and  _297
REMARK  120  A    between atoms: _307  and  _309
REMARK  121  A    between atoms: _309  and  _310
REMARK  122  A    between atoms: _309  and  _312
REMARK  123  A    between atoms: _312  and  _313
REMARK  124  A    between atoms: _316  and  _318
REMARK  125  A    between atoms: _318  and  _319
REMARK  126  A    between atoms: _318  and  _321
REMARK  127  A    between atoms: _321  and  _322
REMARK  128  A    between atoms: _322  and  _323
REMARK  129  A    between atoms: _326  and  _328
REMARK  130  A    between atoms: _328  and  _329
REMARK  131  A    between atoms: _328  and  _331
REMARK  132  A    between atoms: _331  and  _332
REMARK  133  A    between atoms: _334  and  _336
REMARK  134  A    between atoms: _336  and  _337
REMARK  135  A    between atoms: _336  and  _339
REMARK  136  A    between atoms: _339  and  _340
REMARK  137  A    between atoms: _343  and  _345
REMARK  138  A    between atoms: _345  and  _346
REMARK  139  A    between atoms: _348  and  _350
REMARK  140  A    between atoms: _350  and  _351
REMARK  141  A    between atoms: _350  and  _353
REMARK  142  A    between atoms: _353  and  _354
REMARK  143  A    between atoms: _364  and  _366
REMARK  144  A    between atoms: _366  and  _367
REMARK  145  A    between atoms: _366  and  _369
REMARK  146  A    between atoms: _369  and  _370
REMARK  147  A    between atoms: _370  and  _371
REMARK  148  A    between atoms: _371  and  _372
REMARK  149  A    between atoms: _381  and  _383
REMARK  150  A    between atoms: _383  and  _384
REMARK  151  A    between atoms: _383  and  _386
REMARK  152  A    between atoms: _386  and  _387
REMARK  153  A    between atoms: _387  and  _388
REMARK  154  A    between atoms: _388  and  _389
REMARK  155  A    between atoms: _389  and  _390
REMARK  156  A    between atoms: _394  and  _396
REMARK  157  A    between atoms: _396  and  _397
REMARK  158  A    between atoms: _396  and  _399
REMARK  159  A    between atoms: _399  and  _400
REMARK  160  A    between atoms: _400  and  _401
REMARK  161  A    between atoms: _406  and  _408
REMARK  162  A    between atoms: _408  and  _409
REMARK  163  A    between atoms: _408  and  _411
REMARK  164  A    between atoms: _411  and  _412
REMARK                            x       y       z     vdW  Elec       q    Type
REMARK                         _______ _______ _______ _____ _____    ______ ____
ROOT
ATOM      1  O   HOH     1      24.089  16.215  15.773  0.00  0.00    +0.000 OA
ENDROOT
TORSDOF 0
REMARK  Name = ../refined-set-2016/3uj9/3uj9_pocket.pdb
REMARK  164 active torsions:
REMARK  status: ('A' for Active; 'I' for Inactive)
REMARK    1  A    between atoms: _1  and  _3
REMARK    2  A    between atoms: _3  and  _4
REMARK    3  A    between atoms: _3  and  _6
REMARK    4  A    between atoms: _6  and  _7
REMARK    5  A    between atoms: _7  and  _8
REMARK    6  A    between atoms: _13  and  _15
REMARK    7  A    between atoms: _15  and  _16
REMARK    8  A    between atoms: _15  and  _18
REMARK    9  A    between atoms: _18  and  _19
REMARK   10  A    between atoms: _24  and  _25
REMARK   11  A    between atoms: _27  and  _29
REMARK   12  A    between atoms: _29  and  _30
REMARK   13  A    between atoms: _32  and  _34
REMARK   14  A    between atoms: _34  and  _35
REMARK   15  A    between atoms: _34  and  _37
REMARK   16  A    between atoms: _37  and  _38
REMARK   17  A    between atoms: _43  and  _44
REMARK   18  A    between atoms: _46  and  _48
REMARK   19  A    between atoms: _48  and  _49
REMARK   20  A    between atoms: _48  and  _51
REMARK   21  A    between atoms: _51  and  _52
REMARK   22  A    between atoms: _55  and  _57
REMARK   23  A    between atoms: _57  and  _58
REMARK   24  A    between atoms: _57  and  _60
REMARK   25  A    between atoms: _60  and  _61
REMARK   26  A    between atoms: _67  and  _69
REMARK   27  A    between atoms: _69  and  _70
REMARK   28  A    between atoms: _69  and  _72
REMARK   29  A    between atoms: _72  and  _73
REMARK   30  A    between atoms: _78  and  _79
REMARK   31  A    between atoms: _81  and  _83
REMARK   32  A    between atoms: _83  and  _84
REMARK   33  A    between atoms: _83  and  _86
REMARK   34  A    between atoms: _86  and  _87
REMARK   35  A    between atoms: _90  and  _92
REMARK   36  A    between atoms: _92  and  _93
REMARK   37  A    between atoms: _92  and  _95
REMARK   38  A    between atoms: _95  and  _96
REMARK   39  A    between atoms: _98  and  _100
REMARK   40  A    between atoms: _100  and  _101
REMARK   41  A    between atoms: _100  and  _103
REMARK   42  A    between atoms: _103  and  _104
REMARK   43  A    between atoms: _106  and  _108
REMARK   44  A    between atoms: _108  and  _109
REMARK   45  A    between atoms: _111  and  _113
REMARK   46  A    between atoms: _113  and  _114
REMARK   47  A    between atoms: _116  and  _118
REMARK   48  A    between atoms: _118  and  _119
REMARK   49  A    between atoms: _121  and  _123
REMARK   50  A    between atoms: _123  and  _124
REMARK   51  A    between atoms: _126  and  _128
REMARK   52  A    between atoms: _128  and  _129
REMARK   53  A    between atoms: _128  and  _131
REMARK   54  A    between atoms: _131  and  _132
REMARK   55  A    between atoms: _135  and  _137
REMARK   56  A    between atoms: _137  and  _138
REMARK   57  A    between atoms: _137  and  _140
REMARK   58  A    between atoms: _140  and  _141
REMARK   59  A    between atoms: _144  and  _146
REMARK   60  A    between atoms: _146  and  _147
REMARK   61  A    between atoms: _146  and  _149
REMARK   62  A    between atoms: _149  and  _150
REMARK   63  A    between atoms: _150  and  _151
REMARK   64  A    between atoms: _151  and  _152
REMARK   65  A    between atoms: _161  and  _163
REMARK   66  A    between atoms: _163  and  _164
REMARK   67  A    between atoms: _163  and  _166
REMARK   68  A    between atoms: _166  and  _167
REMARK   69  A    between atoms: _170  and  _172
REMARK   70  A    between atoms: _172  and  _173
REMARK   71  A    between atoms: _176  and  _178
REMARK   72  A    between atoms: _178  and  _179
REMARK   73  A    between atoms: _178  and  _181
REMARK   74  A    between atoms: _181  and  _182
REMARK   75  A    between atoms: _185  and  _187
REMARK   76  A    between atoms: _187  and  _188
REMARK   77  A    between atoms: _187  and  _190
REMARK   78  A    between atoms: _190  and  _191
REMARK   79  A    between atoms: _194  and  _196
REMARK   80  A    between atoms: _196  and  _197
REMARK   81  A    between atoms: _196  and  _199
REMARK   82  A    between atoms: _199  and  _200
REMARK   83  A    between atoms: _205  and  _207
REMARK   84  A    between atoms: _207  and  _208
REMARK   85  A    between atoms: _207  and  _210
REMARK   86  A    between atoms: _210  and  _211
REMARK   87  A    between atoms: _214  and  _216
REMARK   88  A    between atoms: _216  and  _217
REMARK   89  A    between atoms: _216  and  _219
REMARK   90  A    between atoms: _219  and  _220
REMARK   91  A    between atoms: _223  and  _225
REMARK   92  A    between atoms: _225  and  _226
REMARK   93  A    between atoms: _225  and  _228
REMARK   94  A    between atoms: _228  and  _229
REMARK   95  A    between atoms: _234  and  _235
REMARK   96  A    between atoms: _237  and  _239
REMARK   97  A    between atoms: _239  and  _240
REMARK   98  A    between atoms: _239  and  _242
REMARK   99  A    between atoms: _242  and  _243
REMARK  100  A    between atoms: _248  and  _249
REMARK  101  A    between atoms: _251  and  _253
REMARK  102  A    between atoms: _253  and  _254
REMARK  103  A    between atoms: _253  and  _256
REMARK  104  A    between atoms: _256  and  _257
REMARK  105  A    between atoms: _257  and  _258
REMARK  106  A    between atoms: _258  and  _259
REMARK  107  A    between atoms: _268  and  _270
REMARK  108  A    between atoms: _270  and  _271
REMARK  109  A    between atoms: _270  and  _273
REMARK  110  A    between atoms: _273  and  _274
REMARK  111  A    between atoms: _279  and  _280
REMARK  112  A    between atoms: _282  and  _284
REMARK  113  A    between atoms: _284  and  _285
REMARK  114  A    between atoms: _284  and  _287
REMARK  115  A    between atoms: _287  and  _288
REMARK  116  A    between atoms: _291  and  _293
REMARK  117  A    between atoms: _293  and  _294
REMARK  118  A    between atoms: _293  and  _296
REMARK  119  A    between atoms: _296  and  _297
REMARK  120  A    between atoms: _307  and  _309
REMARK  121  A    between atoms: _309  and  _310
REMARK  122  A    between atoms: _309  and  _312
REMARK  123  A    between atoms: _312  and  _313
REMARK  124  A    between atoms: _316  and  _318
REMARK  125  A    between atoms: _318  and  _319
REMARK  126  A    between atoms: _318  and  _321
REMARK  127  A    between atoms: _321  and  _322
REMARK  128  A    between atoms: _322  and  _323
REMARK  129  A    between atoms: _326  and  _328
REMARK  130  A    between atoms: _328  and  _329
REMARK  131  A    between atoms: _328  and  _331
REMARK  132  A    between atoms: _331  and  _332
REMARK  133  A    between atoms: _334  and  _336
REMARK  134  A    between atoms: _336  and  _337
REMARK  135  A    between atoms: _336  and  _339
REMARK  136  A    between atoms: _339  and  _340
REMARK  137  A    between atoms: _343  and  _345
REMARK  138  A    between atoms: _345  and  _346
REMARK  139  A    between atoms: _348  and  _350
REMARK  140  A    between atoms: _350  and  _351
REMARK  141  A    between atoms: _350  and  _353
REMARK  142  A    between atoms: _353  and  _354
REMARK  143  A    between atoms: _364  and  _366
REMARK  144  A    between atoms: _366  and  _367
REMARK  145  A    between atoms: _366  and  _369
REMARK  146  A    between atoms: _369  and  _370
REMARK  147  A    between atoms: _370  and  _371
REMARK  148  A    between atoms: _371  and  _372
REMARK  149  A    between atoms: _381  and  _383
REMARK  150  A    between atoms: _383  and  _384
REMARK  151  A    between atoms: _383  and  _386
REMARK  152  A    between atoms: _386  and  _387
REMARK  153  A    between atoms: _387  and  _388
REMARK  154  A    between atoms: _388  and  _389
REMARK  155  A    between atoms: _389  and  _390
REMARK  156  A    between atoms: _394  and  _396
REMARK  157  A    between atoms: _396  and  _397
REMARK  158  A    between atoms: _396  and  _399
REMARK  159  A    between atoms: _399  and  _400
REMARK  160  A    between atoms: _400  and  _401
REMARK  161  A    between atoms: _406  and  _408
REMARK  162  A    between atoms: _408  and  _409
REMARK  163  A    between atoms: _408  and  _411
REMARK  164  A    between atoms: _411  and  _412
REMARK                            x       y       z     vdW  Elec       q    Type
REMARK                         _______ _______ _______ _____ _____    ______ ____
ROOT
ATOM      1  O   HOH     1      24.894  15.909  18.508  0.00  0.00    +0.000 OA
ENDROOT
TORSDOF 0
REMARK  Name = ../refined-set-2016/3uj9/3uj9_pocket.pdb
REMARK  164 active torsions:
REMARK  status: ('A' for Active; 'I' for Inactive)
REMARK    1  A    between atoms: _1  and  _3
REMARK    2  A    between atoms: _3  and  _4
REMARK    3  A    between atoms: _3  and  _6
REMARK    4  A    between atoms: _6  and  _7
REMARK    5  A    between atoms: _7  and  _8
REMARK    6  A    between atoms: _13  and  _15
REMARK    7  A    between atoms: _15  and  _16
REMARK    8  A    between atoms: _15  and  _18
REMARK    9  A    between atoms: _18  and  _19
REMARK   10  A    between atoms: _24  and  _25
REMARK   11  A    between atoms: _27  and  _29
REMARK   12  A    between atoms: _29  and  _30
REMARK   13  A    between atoms: _32  and  _34
REMARK   14  A    between atoms: _34  and  _35
REMARK   15  A    between atoms: _34  and  _37
REMARK   16  A    between atoms: _37  and  _38
REMARK   17  A    between atoms: _43  and  _44
REMARK   18  A    between atoms: _46  and  _48
REMARK   19  A    between atoms: _48  and  _49
REMARK   20  A    between atoms: _48  and  _51
REMARK   21  A    between atoms: _51  and  _52
REMARK   22  A    between atoms: _55  and  _57
REMARK   23  A    between atoms: _57  and  _58
REMARK   24  A    between atoms: _57  and  _60
REMARK   25  A    between atoms: _60  and  _61
REMARK   26  A    between atoms: _67  and  _69
REMARK   27  A    between atoms: _69  and  _70
REMARK   28  A    between atoms: _69  and  _72
REMARK   29  A    between atoms: _72  and  _73
REMARK   30  A    between atoms: _78  and  _79
REMARK   31  A    between atoms: _81  and  _83
REMARK   32  A    between atoms: _83  and  _84
REMARK   33  A    between atoms: _83  and  _86
REMARK   34  A    between atoms: _86  and  _87
REMARK   35  A    between atoms: _90  and  _92
REMARK   36  A    between atoms: _92  and  _93
REMARK   37  A    between atoms: _92  and  _95
REMARK   38  A    between atoms: _95  and  _96
REMARK   39  A    between atoms: _98  and  _100
REMARK   40  A    between atoms: _100  and  _101
REMARK   41  A    between atoms: _100  and  _103
REMARK   42  A    between atoms: _103  and  _104
REMARK   43  A    between atoms: _106  and  _108
REMARK   44  A    between atoms: _108  and  _109
REMARK   45  A    between atoms: _111  and  _113
REMARK   46  A    between atoms: _113  and  _114
REMARK   47  A    between atoms: _116  and  _118
REMARK   48  A    between atoms: _118  and  _119
REMARK   49  A    between atoms: _121  and  _123
REMARK   50  A    between atoms: _123  and  _124
REMARK   51  A    between atoms: _126  and  _128
REMARK   52  A    between atoms: _128  and  _129
REMARK   53  A    between atoms: _128  and  _131
REMARK   54  A    between atoms: _131  and  _132
REMARK   55  A    between atoms: _135  and  _137
REMARK   56  A    between atoms: _137  and  _138
REMARK   57  A    between atoms: _137  and  _140
REMARK   58  A    between atoms: _140  and  _141
REMARK   59  A    between atoms: _144  and  _146
REMARK   60  A    between atoms: _146  and  _147
REMARK   61  A    between atoms: _146  and  _149
REMARK   62  A    between atoms: _149  and  _150
REMARK   63  A    between atoms: _150  and  _151
REMARK   64  A    between atoms: _151  and  _152
REMARK   65  A    between atoms: _161  and  _163
REMARK   66  A    between atoms: _163  and  _164
REMARK   67  A    between atoms: _163  and  _166
REMARK   68  A    between atoms: _166  and  _167
REMARK   69  A    between atoms: _170  and  _172
REMARK   70  A    between atoms: _172  and  _173
REMARK   71  A    between atoms: _176  and  _178
REMARK   72  A    between atoms: _178  and  _179
REMARK   73  A    between atoms: _178  and  _181
REMARK   74  A    between atoms: _181  and  _182
REMARK   75  A    between atoms: _185  and  _187
REMARK   76  A    between atoms: _187  and  _188
REMARK   77  A    between atoms: _187  and  _190
REMARK   78  A    between atoms: _190  and  _191
REMARK   79  A    between atoms: _194  and  _196
REMARK   80  A    between atoms: _196  and  _197
REMARK   81  A    between atoms: _196  and  _199
REMARK   82  A    between atoms: _199  and  _200
REMARK   83  A    between atoms: _205  and  _207
REMARK   84  A    between atoms: _207  and  _208
REMARK   85  A    between atoms: _207  and  _210
REMARK   86  A    between atoms: _210  and  _211
REMARK   87  A    between atoms: _214  and  _216
REMARK   88  A    between atoms: _216  and  _217
REMARK   89  A    between atoms: _216  and  _219
REMARK   90  A    between atoms: _219  and  _220
REMARK   91  A    between atoms: _223  and  _225
REMARK   92  A    between atoms: _225  and  _226
REMARK   93  A    between atoms: _225  and  _228
REMARK   94  A    between atoms: _228  and  _229
REMARK   95  A    between atoms: _234  and  _235
REMARK   96  A    between atoms: _237  and  _239
REMARK   97  A    between atoms: _239  and  _240
REMARK   98  A    between atoms: _239  and  _242
REMARK   99  A    between atoms: _242  and  _243
REMARK  100  A    between atoms: _248  and  _249
REMARK  101  A    between atoms: _251  and  _253
REMARK  102  A    between atoms: _253  and  _254
REMARK  103  A    between atoms: _253  and  _256
REMARK  104  A    between atoms: _256  and  _257
REMARK  105  A    between atoms: _257  and  _258
REMARK  106  A    between atoms: _258  and  _259
REMARK  107  A    between atoms: _268  and  _270
REMARK  108  A    between atoms: _270  and  _271
REMARK  109  A    between atoms: _270  and  _273
REMARK  110  A    between atoms: _273  and  _274
REMARK  111  A    between atoms: _279  and  _280
REMARK  112  A    between atoms: _282  and  _284
REMARK  113  A    between atoms: _284  and  _285
REMARK  114  A    between atoms: _284  and  _287
REMARK  115  A    between atoms: _287  and  _288
REMARK  116  A    between atoms: _291  and  _293
REMARK  117  A    between atoms: _293  and  _294
REMARK  118  A    between atoms: _293  and  _296
REMARK  119  A    between atoms: _296  and  _297
REMARK  120  A    between atoms: _307  and  _309
REMARK  121  A    between atoms: _309  and  _310
REMARK  122  A    between atoms: _309  and  _312
REMARK  123  A    between atoms: _312  and  _313
REMARK  124  A    between atoms: _316  and  _318
REMARK  125  A    between atoms: _318  and  _319
REMARK  126  A    between atoms: _318  and  _321
REMARK  127  A    between atoms: _321  and  _322
REMARK  128  A    between atoms: _322  and  _323
REMARK  129  A    between atoms: _326  and  _328
REMARK  130  A    between atoms: _328  and  _329
REMARK  131  A    between atoms: _328  and  _331
REMARK  132  A    between atoms: _331  and  _332
REMARK  133  A    between atoms: _334  and  _336
REMARK  134  A    between atoms: _336  and  _337
REMARK  135  A    between atoms: _336  and  _339
REMARK  136  A    between atoms: _339  and  _340
REMARK  137  A    between atoms: _343  and  _345
REMARK  138  A    between atoms: _345  and  _346
REMARK  139  A    between atoms: _348  and  _350
REMARK  140  A    between atoms: _350  and  _351
REMARK  141  A    between atoms: _350  and  _353
REMARK  142  A    between atoms: _353  and  _354
REMARK  143  A    between atoms: _364  and  _366
REMARK  144  A    between atoms: _366  and  _367
REMARK  145  A    between atoms: _366  and  _369
REMARK  146  A    between atoms: _369  and  _370
REMARK  147  A    between atoms: _370  and  _371
REMARK  148  A    between atoms: _371  and  _372
REMARK  149  A    between atoms: _381  and  _383
REMARK  150  A    between atoms: _383  and  _384
REMARK  151  A    between atoms: _383  and  _386
REMARK  152  A    between atoms: _386  and  _387
REMARK  153  A    between atoms: _387  and  _388
REMARK  154  A    between atoms: _388  and  _389
REMARK  155  A    between atoms: _389  and  _390
REMARK  156  A    between atoms: _394  and  _396
REMARK  157  A    between atoms: _396  and  _397
REMARK  158  A    between atoms: _396  and  _399
REMARK  159  A    between atoms: _399  and  _400
REMARK  160  A    between atoms: _400  and  _401
REMARK  161  A    between atoms: _406  and  _408
REMARK  162  A    between atoms: _408  and  _409
REMARK  163  A    between atoms: _408  and  _411
REMARK  164  A    between atoms: _411  and  _412
REMARK                            x       y       z     vdW  Elec       q    Type
REMARK                         _______ _______ _______ _____ _____    ______ ____
ROOT
ATOM      1  O   HOH     1      22.024  16.716  17.164  0.00  0.00    +0.000 OA
ENDROOT
TORSDOF 0
REMARK  Name = ../refined-set-2016/3uj9/3uj9_pocket.pdb
REMARK  164 active torsions:
REMARK  status: ('A' for Active; 'I' for Inactive)
REMARK    1  A    between atoms: _1  and  _3
REMARK    2  A    between atoms: _3  and  _4
REMARK    3  A    between atoms: _3  and  _6
REMARK    4  A    between atoms: _6  and  _7
REMARK    5  A    between atoms: _7  and  _8
REMARK    6  A    between atoms: _13  and  _15
REMARK    7  A    between atoms: _15  and  _16
REMARK    8  A    between atoms: _15  and  _18
REMARK    9  A    between atoms: _18  and  _19
REMARK   10  A    between atoms: _24  and  _25
REMARK   11  A    between atoms: _27  and  _29
REMARK   12  A    between atoms: _29  and  _30
REMARK   13  A    between atoms: _32  and  _34
REMARK   14  A    between atoms: _34  and  _35
REMARK   15  A    between atoms: _34  and  _37
REMARK   16  A    between atoms: _37  and  _38
REMARK   17  A    between atoms: _43  and  _44
REMARK   18  A    between atoms: _46  and  _48
REMARK   19  A    between atoms: _48  and  _49
REMARK   20  A    between atoms: _48  and  _51
REMARK   21  A    between atoms: _51  and  _52
REMARK   22  A    between atoms: _55  and  _57
REMARK   23  A    between atoms: _57  and  _58
REMARK   24  A    between atoms: _57  and  _60
REMARK   25  A    between atoms: _60  and  _61
REMARK   26  A    between atoms: _67  and  _69
REMARK   27  A    between atoms: _69  and  _70
REMARK   28  A    between atoms: _69  and  _72
REMARK   29  A    between atoms: _72  and  _73
REMARK   30  A    between atoms: _78  and  _79
REMARK   31  A    between atoms: _81  and  _83
REMARK   32  A    between atoms: _83  and  _84
REMARK   33  A    between atoms: _83  and  _86
REMARK   34  A    between atoms: _86  and  _87
REMARK   35  A    between atoms: _90  and  _92
REMARK   36  A    between atoms: _92  and  _93
REMARK   37  A    between atoms: _92  and  _95
REMARK   38  A    between atoms: _95  and  _96
REMARK   39  A    between atoms: _98  and  _100
REMARK   40  A    between atoms: _100  and  _101
REMARK   41  A    between atoms: _100  and  _103
REMARK   42  A    between atoms: _103  and  _104
REMARK   43  A    between atoms: _106  and  _108
REMARK   44  A    between atoms: _108  and  _109
REMARK   45  A    between atoms: _111  and  _113
REMARK   46  A    between atoms: _113  and  _114
REMARK   47  A    between atoms: _116  and  _118
REMARK   48  A    between atoms: _118  and  _119
REMARK   49  A    between atoms: _121  and  _123
REMARK   50  A    between atoms: _123  and  _124
REMARK   51  A    between atoms: _126  and  _128
REMARK   52  A    between atoms: _128  and  _129
REMARK   53  A    between atoms: _128  and  _131
REMARK   54  A    between atoms: _131  and  _132
REMARK   55  A    between atoms: _135  and  _137
REMARK   56  A    between atoms: _137  and  _138
REMARK   57  A    between atoms: _137  and  _140
REMARK   58  A    between atoms: _140  and  _141
REMARK   59  A    between atoms: _144  and  _146
REMARK   60  A    between atoms: _146  and  _147
REMARK   61  A    between atoms: _146  and  _149
REMARK   62  A    between atoms: _149  and  _150
REMARK   63  A    between atoms: _150  and  _151
REMARK   64  A    between atoms: _151  and  _152
REMARK   65  A    between atoms: _161  and  _163
REMARK   66  A    between atoms: _163  and  _164
REMARK   67  A    between atoms: _163  and  _166
REMARK   68  A    between atoms: _166  and  _167
REMARK   69  A    between atoms: _170  and  _172
REMARK   70  A    between atoms: _172  and  _173
REMARK   71  A    between atoms: _176  and  _178
REMARK   72  A    between atoms: _178  and  _179
REMARK   73  A    between atoms: _178  and  _181
REMARK   74  A    between atoms: _181  and  _182
REMARK   75  A    between atoms: _185  and  _187
REMARK   76  A    between atoms: _187  and  _188
REMARK   77  A    between atoms: _187  and  _190
REMARK   78  A    between atoms: _190  and  _191
REMARK   79  A    between atoms: _194  and  _196
REMARK   80  A    between atoms: _196  and  _197
REMARK   81  A    between atoms: _196  and  _199
REMARK   82  A    between atoms: _199  and  _200
REMARK   83  A    between atoms: _205  and  _207
REMARK   84  A    between atoms: _207  and  _208
REMARK   85  A    between atoms: _207  and  _210
REMARK   86  A    between atoms: _210  and  _211
REMARK   87  A    between atoms: _214  and  _216
REMARK   88  A    between atoms: _216  and  _217
REMARK   89  A    between atoms: _216  and  _219
REMARK   90  A    between atoms: _219  and  _220
REMARK   91  A    between atoms: _223  and  _225
REMARK   92  A    between atoms: _225  and  _226
REMARK   93  A    between atoms: _225  and  _228
REMARK   94  A    between atoms: _228  and  _229
REMARK   95  A    between atoms: _234  and  _235
REMARK   96  A    between atoms: _237  and  _239
REMARK   97  A    between atoms: _239  and  _240
REMARK   98  A    between atoms: _239  and  _242
REMARK   99  A    between atoms: _242  and  _243
REMARK  100  A    between atoms: _248  and  _249
REMARK  101  A    between atoms: _251  and  _253
REMARK  102  A    between atoms: _253  and  _254
REMARK  103  A    between atoms: _253  and  _256
REMARK  104  A    between atoms: _256  and  _257
REMARK  105  A    between atoms: _257  and  _258
REMARK  106  A    between atoms: _258  and  _259
REMARK  107  A    between atoms: _268  and  _270
REMARK  108  A    between atoms: _270  and  _271
REMARK  109  A    between atoms: _270  and  _273
REMARK  110  A    between atoms: _273  and  _274
REMARK  111  A    between atoms: _279  and  _280
REMARK  112  A    between atoms: _282  and  _284
REMARK  113  A    between atoms: _284  and  _285
REMARK  114  A    between atoms: _284  and  _287
REMARK  115  A    between atoms: _287  and  _288
REMARK  116  A    between atoms: _291  and  _293
REMARK  117  A    between atoms: _293  and  _294
REMARK  118  A    between atoms: _293  and  _296
REMARK  119  A    between atoms: _296  and  _297
REMARK  120  A    between atoms: _307  and  _309
REMARK  121  A    between atoms: _309  and  _310
REMARK  122  A    between atoms: _309  and  _312
REMARK  123  A    between atoms: _312  and  _313
REMARK  124  A    between atoms: _316  and  _318
REMARK  125  A    between atoms: _318  and  _319
REMARK  126  A    between atoms: _318  and  _321
REMARK  127  A    between atoms: _321  and  _322
REMARK  128  A    between atoms: _322  and  _323
REMARK  129  A    between atoms: _326  and  _328
REMARK  130  A    between atoms: _328  and  _329
REMARK  131  A    between atoms: _328  and  _331
REMARK  132  A    between atoms: _331  and  _332
REMARK  133  A    between atoms: _334  and  _336
REMARK  134  A    between atoms: _336  and  _337
REMARK  135  A    between atoms: _336  and  _339
REMARK  136  A    between atoms: _339  and  _340
REMARK  137  A    between atoms: _343  and  _345
REMARK  138  A    between atoms: _345  and  _346
REMARK  139  A    between atoms: _348  and  _350
REMARK  140  A    between atoms: _350  and  _351
REMARK  141  A    between atoms: _350  and  _353
REMARK  142  A    between atoms: _353  and  _354
REMARK  143  A    between atoms: _364  and  _366
REMARK  144  A    between atoms: _366  and  _367
REMARK  145  A    between atoms: _366  and  _369
REMARK  146  A    between atoms: _369  and  _370
REMARK  147  A    between atoms: _370  and  _371
REMARK  148  A    between atoms: _371  and  _372
REMARK  149  A    between atoms: _381  and  _383
REMARK  150  A    between atoms: _383  and  _384
REMARK  151  A    between atoms: _383  and  _386
REMARK  152  A    between atoms: _386  and  _387
REMARK  153  A    between atoms: _387  and  _388
REMARK  154  A    between atoms: _388  and  _389
REMARK  155  A    between atoms: _389  and  _390
REMARK  156  A    between atoms: _394  and  _396
REMARK  157  A    between atoms: _396  and  _397
REMARK  158  A    between atoms: _396  and  _399
REMARK  159  A    between atoms: _399  and  _400
REMARK  160  A    between atoms: _400  and  _401
REMARK  161  A    between atoms: _406  and  _408
REMARK  162  A    between atoms: _408  and  _409
REMARK  163  A    between atoms: _408  and  _411
REMARK  164  A    between atoms: _411  and  _412
REMARK                            x       y       z     vdW  Elec       q    Type
REMARK                         _______ _______ _______ _____ _____    ______ ____
ROOT
ATOM      1  O   HOH     1      11.854  14.519  19.281  0.00  0.00    +0.000 OA
ENDROOT
TORSDOF 0
REMARK  Name = ../refined-set-2016/3uj9/3uj9_pocket.pdb
REMARK  164 active torsions:
REMARK  status: ('A' for Active; 'I' for Inactive)
REMARK    1  A    between atoms: _1  and  _3
REMARK    2  A    between atoms: _3  and  _4
REMARK    3  A    between atoms: _3  and  _6
REMARK    4  A    between atoms: _6  and  _7
REMARK    5  A    between atoms: _7  and  _8
REMARK    6  A    between atoms: _13  and  _15
REMARK    7  A    between atoms: _15  and  _16
REMARK    8  A    between atoms: _15  and  _18
REMARK    9  A    between atoms: _18  and  _19
REMARK   10  A    between atoms: _24  and  _25
REMARK   11  A    between atoms: _27  and  _29
REMARK   12  A    between atoms: _29  and  _30
REMARK   13  A    between atoms: _32  and  _34
REMARK   14  A    between atoms: _34  and  _35
REMARK   15  A    between atoms: _34  and  _37
REMARK   16  A    between atoms: _37  and  _38
REMARK   17  A    between atoms: _43  and  _44
REMARK   18  A    between atoms: _46  and  _48
REMARK   19  A    between atoms: _48  and  _49
REMARK   20  A    between atoms: _48  and  _51
REMARK   21  A    between atoms: _51  and  _52
REMARK   22  A    between atoms: _55  and  _57
REMARK   23  A    between atoms: _57  and  _58
REMARK   24  A    between atoms: _57  and  _60
REMARK   25  A    between atoms: _60  and  _61
REMARK   26  A    between atoms: _67  and  _69
REMARK   27  A    between atoms: _69  and  _70
REMARK   28  A    between atoms: _69  and  _72
REMARK   29  A    between atoms: _72  and  _73
REMARK   30  A    between atoms: _78  and  _79
REMARK   31  A    between atoms: _81  and  _83
REMARK   32  A    between atoms: _83  and  _84
REMARK   33  A    between atoms: _83  and  _86
REMARK   34  A    between atoms: _86  and  _87
REMARK   35  A    between atoms: _90  and  _92
REMARK   36  A    between atoms: _92  and  _93
REMARK   37  A    between atoms: _92  and  _95
REMARK   38  A    between atoms: _95  and  _96
REMARK   39  A    between atoms: _98  and  _100
REMARK   40  A    between atoms: _100  and  _101
REMARK   41  A    between atoms: _100  and  _103
REMARK   42  A    between atoms: _103  and  _104
REMARK   43  A    between atoms: _106  and  _108
REMARK   44  A    between atoms: _108  and  _109
REMARK   45  A    between atoms: _111  and  _113
REMARK   46  A    between atoms: _113  and  _114
REMARK   47  A    between atoms: _116  and  _118
REMARK   48  A    between atoms: _118  and  _119
REMARK   49  A    between atoms: _121  and  _123
REMARK   50  A    between atoms: _123  and  _124
REMARK   51  A    between atoms: _126  and  _128
REMARK   52  A    between atoms: _128  and  _129
REMARK   53  A    between atoms: _128  and  _131
REMARK   54  A    between atoms: _131  and  _132
REMARK   55  A    between atoms: _135  and  _137
REMARK   56  A    between atoms: _137  and  _138
REMARK   57  A    between atoms: _137  and  _140
REMARK   58  A    between atoms: _140  and  _141
REMARK   59  A    between atoms: _144  and  _146
REMARK   60  A    between atoms: _146  and  _147
REMARK   61  A    between atoms: _146  and  _149
REMARK   62  A    between atoms: _149  and  _150
REMARK   63  A    between atoms: _150  and  _151
REMARK   64  A    between atoms: _151  and  _152
REMARK   65  A    between atoms: _161  and  _163
REMARK   66  A    between atoms: _163  and  _164
REMARK   67  A    between atoms: _163  and  _166
REMARK   68  A    between atoms: _166  and  _167
REMARK   69  A    between atoms: _170  and  _172
REMARK   70  A    between atoms: _172  and  _173
REMARK   71  A    between atoms: _176  and  _178
REMARK   72  A    between atoms: _178  and  _179
REMARK   73  A    between atoms: _178  and  _181
REMARK   74  A    between atoms: _181  and  _182
REMARK   75  A    between atoms: _185  and  _187
REMARK   76  A    between atoms: _187  and  _188
REMARK   77  A    between atoms: _187  and  _190
REMARK   78  A    between atoms: _190  and  _191
REMARK   79  A    between atoms: _194  and  _196
REMARK   80  A    between atoms: _196  and  _197
REMARK   81  A    between atoms: _196  and  _199
REMARK   82  A    between atoms: _199  and  _200
REMARK   83  A    between atoms: _205  and  _207
REMARK   84  A    between atoms: _207  and  _208
REMARK   85  A    between atoms: _207  and  _210
REMARK   86  A    between atoms: _210  and  _211
REMARK   87  A    between atoms: _214  and  _216
REMARK   88  A    between atoms: _216  and  _217
REMARK   89  A    between atoms: _216  and  _219
REMARK   90  A    between atoms: _219  and  _220
REMARK   91  A    between atoms: _223  and  _225
REMARK   92  A    between atoms: _225  and  _226
REMARK   93  A    between atoms: _225  and  _228
REMARK   94  A    between atoms: _228  and  _229
REMARK   95  A    between atoms: _234  and  _235
REMARK   96  A    between atoms: _237  and  _239
REMARK   97  A    between atoms: _239  and  _240
REMARK   98  A    between atoms: _239  and  _242
REMARK   99  A    between atoms: _242  and  _243
REMARK  100  A    between atoms: _248  and  _249
REMARK  101  A    between atoms: _251  and  _253
REMARK  102  A    between atoms: _253  and  _254
REMARK  103  A    between atoms: _253  and  _256
REMARK  104  A    between atoms: _256  and  _257
REMARK  105  A    between atoms: _257  and  _258
REMARK  106  A    between atoms: _258  and  _259
REMARK  107  A    between atoms: _268  and  _270
REMARK  108  A    between atoms: _270  and  _271
REMARK  109  A    between atoms: _270  and  _273
REMARK  110  A    between atoms: _273  and  _274
REMARK  111  A    between atoms: _279  and  _280
REMARK  112  A    between atoms: _282  and  _284
REMARK  113  A    between atoms: _284  and  _285
REMARK  114  A    between atoms: _284  and  _287
REMARK  115  A    between atoms: _287  and  _288
REMARK  116  A    between atoms: _291  and  _293
REMARK  117  A    between atoms: _293  and  _294
REMARK  118  A    between atoms: _293  and  _296
REMARK  119  A    between atoms: _296  and  _297
REMARK  120  A    between atoms: _307  and  _309
REMARK  121  A    between atoms: _309  and  _310
REMARK  122  A    between atoms: _309  and  _312
REMARK  123  A    between atoms: _312  and  _313
REMARK  124  A    between atoms: _316  and  _318
REMARK  125  A    between atoms: _318  and  _319
REMARK  126  A    between atoms: _318  and  _321
REMARK  127  A    between atoms: _321  and  _322
REMARK  128  A    between atoms: _322  and  _323
REMARK  129  A    between atoms: _326  and  _328
REMARK  130  A    between atoms: _328  and  _329
REMARK  131  A    between atoms: _328  and  _331
REMARK  132  A    between atoms: _331  and  _332
REMARK  133  A    between atoms: _334  and  _336
REMARK  134  A    between atoms: _336  and  _337
REMARK  135  A    between atoms: _336  and  _339
REMARK  136  A    between atoms: _339  and  _340
REMARK  137  A    between atoms: _343  and  _345
REMARK  138  A    between atoms: _345  and  _346
REMARK  139  A    between atoms: _348  and  _350
REMARK  140  A    between atoms: _350  and  _351
REMARK  141  A    between atoms: _350  and  _353
REMARK  142  A    between atoms: _353  and  _354
REMARK  143  A    between atoms: _364  and  _366
REMARK  144  A    between atoms: _366  and  _367
REMARK  145  A    between atoms: _366  and  _369
REMARK  146  A    between atoms: _369  and  _370
REMARK  147  A    between atoms: _370  and  _371
REMARK  148  A    between atoms: _371  and  _372
REMARK  149  A    between atoms: _381  and  _383
REMARK  150  A    between atoms: _383  and  _384
REMARK  151  A    between atoms: _383  and  _386
REMARK  152  A    between atoms: _386  and  _387
REMARK  153  A    between atoms: _387  and  _388
REMARK  154  A    between atoms: _388  and  _389
REMARK  155  A    between atoms: _389  and  _390
REMARK  156  A    between atoms: _394  and  _396
REMARK  157  A    between atoms: _396  and  _397
REMARK  158  A    between atoms: _396  and  _399
REMARK  159  A    between atoms: _399  and  _400
REMARK  160  A    between atoms: _400  and  _401
REMARK  161  A    between atoms: _406  and  _408
REMARK  162  A    between atoms: _408  and  _409
REMARK  163  A    between atoms: _408  and  _411
REMARK  164  A    between atoms: _411  and  _412
REMARK                            x       y       z     vdW  Elec       q    Type
REMARK                         _______ _______ _______ _____ _____    ______ ____
ROOT
ATOM      1  O   HOH     1      22.789   7.241  20.918  0.00  0.00    +0.000 OA
ENDROOT
TORSDOF 0
REMARK  Name = ../refined-set-2016/3uj9/3uj9_pocket.pdb
REMARK  164 active torsions:
REMARK  status: ('A' for Active; 'I' for Inactive)
REMARK    1  A    between atoms: _1  and  _3
REMARK    2  A    between atoms: _3  and  _4
REMARK    3  A    between atoms: _3  and  _6
REMARK    4  A    between atoms: _6  and  _7
REMARK    5  A    between atoms: _7  and  _8
REMARK    6  A    between atoms: _13  and  _15
REMARK    7  A    between atoms: _15  and  _16
REMARK    8  A    between atoms: _15  and  _18
REMARK    9  A    between atoms: _18  and  _19
REMARK   10  A    between atoms: _24  and  _25
REMARK   11  A    between atoms: _27  and  _29
REMARK   12  A    between atoms: _29  and  _30
REMARK   13  A    between atoms: _32  and  _34
REMARK   14  A    between atoms: _34  and  _35
REMARK   15  A    between atoms: _34  and  _37
REMARK   16  A    between atoms: _37  and  _38
REMARK   17  A    between atoms: _43  and  _44
REMARK   18  A    between atoms: _46  and  _48
REMARK   19  A    between atoms: _48  and  _49
REMARK   20  A    between atoms: _48  and  _51
REMARK   21  A    between atoms: _51  and  _52
REMARK   22  A    between atoms: _55  and  _57
REMARK   23  A    between atoms: _57  and  _58
REMARK   24  A    between atoms: _57  and  _60
REMARK   25  A    between atoms: _60  and  _61
REMARK   26  A    between atoms: _67  and  _69
REMARK   27  A    between atoms: _69  and  _70
REMARK   28  A    between atoms: _69  and  _72
REMARK   29  A    between atoms: _72  and  _73
REMARK   30  A    between atoms: _78  and  _79
REMARK   31  A    between atoms: _81  and  _83
REMARK   32  A    between atoms: _83  and  _84
REMARK   33  A    between atoms: _83  and  _86
REMARK   34  A    between atoms: _86  and  _87
REMARK   35  A    between atoms: _90  and  _92
REMARK   36  A    between atoms: _92  and  _93
REMARK   37  A    between atoms: _92  and  _95
REMARK   38  A    between atoms: _95  and  _96
REMARK   39  A    between atoms: _98  and  _100
REMARK   40  A    between atoms: _100  and  _101
REMARK   41  A    between atoms: _100  and  _103
REMARK   42  A    between atoms: _103  and  _104
REMARK   43  A    between atoms: _106  and  _108
REMARK   44  A    between atoms: _108  and  _109
REMARK   45  A    between atoms: _111  and  _113
REMARK   46  A    between atoms: _113  and  _114
REMARK   47  A    between atoms: _116  and  _118
REMARK   48  A    between atoms: _118  and  _119
REMARK   49  A    between atoms: _121  and  _123
REMARK   50  A    between atoms: _123  and  _124
REMARK   51  A    between atoms: _126  and  _128
REMARK   52  A    between atoms: _128  and  _129
REMARK   53  A    between atoms: _128  and  _131
REMARK   54  A    between atoms: _131  and  _132
REMARK   55  A    between atoms: _135  and  _137
REMARK   56  A    between atoms: _137  and  _138
REMARK   57  A    between atoms: _137  and  _140
REMARK   58  A    between atoms: _140  and  _141
REMARK   59  A    between atoms: _144  and  _146
REMARK   60  A    between atoms: _146  and  _147
REMARK   61  A    between atoms: _146  and  _149
REMARK   62  A    between atoms: _149  and  _150
REMARK   63  A    between atoms: _150  and  _151
REMARK   64  A    between atoms: _151  and  _152
REMARK   65  A    between atoms: _161  and  _163
REMARK   66  A    between atoms: _163  and  _164
REMARK   67  A    between atoms: _163  and  _166
REMARK   68  A    between atoms: _166  and  _167
REMARK   69  A    between atoms: _170  and  _172
REMARK   70  A    between atoms: _172  and  _173
REMARK   71  A    between atoms: _176  and  _178
REMARK   72  A    between atoms: _178  and  _179
REMARK   73  A    between atoms: _178  and  _181
REMARK   74  A    between atoms: _181  and  _182
REMARK   75  A    between atoms: _185  and  _187
REMARK   76  A    between atoms: _187  and  _188
REMARK   77  A    between atoms: _187  and  _190
REMARK   78  A    between atoms: _190  and  _191
REMARK   79  A    between atoms: _194  and  _196
REMARK   80  A    between atoms: _196  and  _197
REMARK   81  A    between atoms: _196  and  _199
REMARK   82  A    between atoms: _199  and  _200
REMARK   83  A    between atoms: _205  and  _207
REMARK   84  A    between atoms: _207  and  _208
REMARK   85  A    between atoms: _207  and  _210
REMARK   86  A    between atoms: _210  and  _211
REMARK   87  A    between atoms: _214  and  _216
REMARK   88  A    between atoms: _216  and  _217
REMARK   89  A    between atoms: _216  and  _219
REMARK   90  A    between atoms: _219  and  _220
REMARK   91  A    between atoms: _223  and  _225
REMARK   92  A    between atoms: _225  and  _226
REMARK   93  A    between atoms: _225  and  _228
REMARK   94  A    between atoms: _228  and  _229
REMARK   95  A    between atoms: _234  and  _235
REMARK   96  A    between atoms: _237  and  _239
REMARK   97  A    between atoms: _239  and  _240
REMARK   98  A    between atoms: _239  and  _242
REMARK   99  A    between atoms: _242  and  _243
REMARK  100  A    between atoms: _248  and  _249
REMARK  101  A    between atoms: _251  and  _253
REMARK  102  A    between atoms: _253  and  _254
REMARK  103  A    between atoms: _253  and  _256
REMARK  104  A    between atoms: _256  and  _257
REMARK  105  A    between atoms: _257  and  _258
REMARK  106  A    between atoms: _258  and  _259
REMARK  107  A    between atoms: _268  and  _270
REMARK  108  A    between atoms: _270  and  _271
REMARK  109  A    between atoms: _270  and  _273
REMARK  110  A    between atoms: _273  and  _274
REMARK  111  A    between atoms: _279  and  _280
REMARK  112  A    between atoms: _282  and  _284
REMARK  113  A    between atoms: _284  and  _285
REMARK  114  A    between atoms: _284  and  _287
REMARK  115  A    between atoms: _287  and  _288
REMARK  116  A    between atoms: _291  and  _293
REMARK  117  A    between atoms: _293  and  _294
REMARK  118  A    between atoms: _293  and  _296
REMARK  119  A    between atoms: _296  and  _297
REMARK  120  A    between atoms: _307  and  _309
REMARK  121  A    between atoms: _309  and  _310
REMARK  122  A    between atoms: _309  and  _312
REMARK  123  A    between atoms: _312  and  _313
REMARK  124  A    between atoms: _316  and  _318
REMARK  125  A    between atoms: _318  and  _319
REMARK  126  A    between atoms: _318  and  _321
REMARK  127  A    between atoms: _321  and  _322
REMARK  128  A    between atoms: _322  and  _323
REMARK  129  A    between atoms: _326  and  _328
REMARK  130  A    between atoms: _328  and  _329
REMARK  131  A    between atoms: _328  and  _331
REMARK  132  A    between atoms: _331  and  _332
REMARK  133  A    between atoms: _334  and  _336
REMARK  134  A    between atoms: _336  and  _337
REMARK  135  A    between atoms: _336  and  _339
REMARK  136  A    between atoms: _339  and  _340
REMARK  137  A    between atoms: _343  and  _345
REMARK  138  A    between atoms: _345  and  _346
REMARK  139  A    between atoms: _348  and  _350
REMARK  140  A    between atoms: _350  and  _351
REMARK  141  A    between atoms: _350  and  _353
REMARK  142  A    between atoms: _353  and  _354
REMARK  143  A    between atoms: _364  and  _366
REMARK  144  A    between atoms: _366  and  _367
REMARK  145  A    between atoms: _366  and  _369
REMARK  146  A    between atoms: _369  and  _370
REMARK  147  A    between atoms: _370  and  _371
REMARK  148  A    between atoms: _371  and  _372
REMARK  149  A    between atoms: _381  and  _383
REMARK  150  A    between atoms: _383  and  _384
REMARK  151  A    between atoms: _383  and  _386
REMARK  152  A    between atoms: _386  and  _387
REMARK  153  A    between atoms: _387  and  _388
REMARK  154  A    between atoms: _388  and  _389
REMARK  155  A    between atoms: _389  and  _390
REMARK  156  A    between atoms: _394  and  _396
REMARK  157  A    between atoms: _396  and  _397
REMARK  158  A    between atoms: _396  and  _399
REMARK  159  A    between atoms: _399  and  _400
REMARK  160  A    between atoms: _400  and  _401
REMARK  161  A    between atoms: _406  and  _408
REMARK  162  A    between atoms: _408  and  _409
REMARK  163  A    between atoms: _408  and  _411
REMARK  164  A    between atoms: _411  and  _412
REMARK                            x       y       z     vdW  Elec       q    Type
REMARK                         _______ _______ _______ _____ _____    ______ ____
ROOT
ATOM      1  O   HOH     1      11.810   7.425  21.562  0.00  0.00    +0.000 OA
ENDROOT
TORSDOF 0
REMARK  Name = ../refined-set-2016/3uj9/3uj9_pocket.pdb
REMARK  164 active torsions:
REMARK  status: ('A' for Active; 'I' for Inactive)
REMARK    1  A    between atoms: _1  and  _3
REMARK    2  A    between atoms: _3  and  _4
REMARK    3  A    between atoms: _3  and  _6
REMARK    4  A    between atoms: _6  and  _7
REMARK    5  A    between atoms: _7  and  _8
REMARK    6  A    between atoms: _13  and  _15
REMARK    7  A    between atoms: _15  and  _16
REMARK    8  A    between atoms: _15  and  _18
REMARK    9  A    between atoms: _18  and  _19
REMARK   10  A    between atoms: _24  and  _25
REMARK   11  A    between atoms: _27  and  _29
REMARK   12  A    between atoms: _29  and  _30
REMARK   13  A    between atoms: _32  and  _34
REMARK   14  A    between atoms: _34  and  _35
REMARK   15  A    between atoms: _34  and  _37
REMARK   16  A    between atoms: _37  and  _38
REMARK   17  A    between atoms: _43  and  _44
REMARK   18  A    between atoms: _46  and  _48
REMARK   19  A    between atoms: _48  and  _49
REMARK   20  A    between atoms: _48  and  _51
REMARK   21  A    between atoms: _51  and  _52
REMARK   22  A    between atoms: _55  and  _57
REMARK   23  A    between atoms: _57  and  _58
REMARK   24  A    between atoms: _57  and  _60
REMARK   25  A    between atoms: _60  and  _61
REMARK   26  A    between atoms: _67  and  _69
REMARK   27  A    between atoms: _69  and  _70
REMARK   28  A    between atoms: _69  and  _72
REMARK   29  A    between atoms: _72  and  _73
REMARK   30  A    between atoms: _78  and  _79
REMARK   31  A    between atoms: _81  and  _83
REMARK   32  A    between atoms: _83  and  _84
REMARK   33  A    between atoms: _83  and  _86
REMARK   34  A    between atoms: _86  and  _87
REMARK   35  A    between atoms: _90  and  _92
REMARK   36  A    between atoms: _92  and  _93
REMARK   37  A    between atoms: _92  and  _95
REMARK   38  A    between atoms: _95  and  _96
REMARK   39  A    between atoms: _98  and  _100
REMARK   40  A    between atoms: _100  and  _101
REMARK   41  A    between atoms: _100  and  _103
REMARK   42  A    between atoms: _103  and  _104
REMARK   43  A    between atoms: _106  and  _108
REMARK   44  A    between atoms: _108  and  _109
REMARK   45  A    between atoms: _111  and  _113
REMARK   46  A    between atoms: _113  and  _114
REMARK   47  A    between atoms: _116  and  _118
REMARK   48  A    between atoms: _118  and  _119
REMARK   49  A    between atoms: _121  and  _123
REMARK   50  A    between atoms: _123  and  _124
REMARK   51  A    between atoms: _126  and  _128
REMARK   52  A    between atoms: _128  and  _129
REMARK   53  A    between atoms: _128  and  _131
REMARK   54  A    between atoms: _131  and  _132
REMARK   55  A    between atoms: _135  and  _137
REMARK   56  A    between atoms: _137  and  _138
REMARK   57  A    between atoms: _137  and  _140
REMARK   58  A    between atoms: _140  and  _141
REMARK   59  A    between atoms: _144  and  _146
REMARK   60  A    between atoms: _146  and  _147
REMARK   61  A    between atoms: _146  and  _149
REMARK   62  A    between atoms: _149  and  _150
REMARK   63  A    between atoms: _150  and  _151
REMARK   64  A    between atoms: _151  and  _152
REMARK   65  A    between atoms: _161  and  _163
REMARK   66  A    between atoms: _163  and  _164
REMARK   67  A    between atoms: _163  and  _166
REMARK   68  A    between atoms: _166  and  _167
REMARK   69  A    between atoms: _170  and  _172
REMARK   70  A    between atoms: _172  and  _173
REMARK   71  A    between atoms: _176  and  _178
REMARK   72  A    between atoms: _178  and  _179
REMARK   73  A    between atoms: _178  and  _181
REMARK   74  A    between atoms: _181  and  _182
REMARK   75  A    between atoms: _185  and  _187
REMARK   76  A    between atoms: _187  and  _188
REMARK   77  A    between atoms: _187  and  _190
REMARK   78  A    between atoms: _190  and  _191
REMARK   79  A    between atoms: _194  and  _196
REMARK   80  A    between atoms: _196  and  _197
REMARK   81  A    between atoms: _196  and  _199
REMARK   82  A    between atoms: _199  and  _200
REMARK   83  A    between atoms: _205  and  _207
REMARK   84  A    between atoms: _207  and  _208
REMARK   85  A    between atoms: _207  and  _210
REMARK   86  A    between atoms: _210  and  _211
REMARK   87  A    between atoms: _214  and  _216
REMARK   88  A    between atoms: _216  and  _217
REMARK   89  A    between atoms: _216  and  _219
REMARK   90  A    between atoms: _219  and  _220
REMARK   91  A    between atoms: _223  and  _225
REMARK   92  A    between atoms: _225  and  _226
REMARK   93  A    between atoms: _225  and  _228
REMARK   94  A    between atoms: _228  and  _229
REMARK   95  A    between atoms: _234  and  _235
REMARK   96  A    between atoms: _237  and  _239
REMARK   97  A    between atoms: _239  and  _240
REMARK   98  A    between atoms: _239  and  _242
REMARK   99  A    between atoms: _242  and  _243
REMARK  100  A    between atoms: _248  and  _249
REMARK  101  A    between atoms: _251  and  _253
REMARK  102  A    between atoms: _253  and  _254
REMARK  103  A    between atoms: _253  and  _256
REMARK  104  A    between atoms: _256  and  _257
REMARK  105  A    between atoms: _257  and  _258
REMARK  106  A    between atoms: _258  and  _259
REMARK  107  A    between atoms: _268  and  _270
REMARK  108  A    between atoms: _270  and  _271
REMARK  109  A    between atoms: _270  and  _273
REMARK  110  A    between atoms: _273  and  _274
REMARK  111  A    between atoms: _279  and  _280
REMARK  112  A    between atoms: _282  and  _284
REMARK  113  A    between atoms: _284  and  _285
REMARK  114  A    between atoms: _284  and  _287
REMARK  115  A    between atoms: _287  and  _288
REMARK  116  A    between atoms: _291  and  _293
REMARK  117  A    between atoms: _293  and  _294
REMARK  118  A    between atoms: _293  and  _296
REMARK  119  A    between atoms: _296  and  _297
REMARK  120  A    between atoms: _307  and  _309
REMARK  121  A    between atoms: _309  and  _310
REMARK  122  A    between atoms: _309  and  _312
REMARK  123  A    between atoms: _312  and  _313
REMARK  124  A    between atoms: _316  and  _318
REMARK  125  A    between atoms: _318  and  _319
REMARK  126  A    between atoms: _318  and  _321
REMARK  127  A    between atoms: _321  and  _322
REMARK  128  A    between atoms: _322  and  _323
REMARK  129  A    between atoms: _326  and  _328
REMARK  130  A    between atoms: _328  and  _329
REMARK  131  A    between atoms: _328  and  _331
REMARK  132  A    between atoms: _331  and  _332
REMARK  133  A    between atoms: _334  and  _336
REMARK  134  A    between atoms: _336  and  _337
REMARK  135  A    between atoms: _336  and  _339
REMARK  136  A    between atoms: _339  and  _340
REMARK  137  A    between atoms: _343  and  _345
REMARK  138  A    between atoms: _345  and  _346
REMARK  139  A    between atoms: _348  and  _350
REMARK  140  A    between atoms: _350  and  _351
REMARK  141  A    between atoms: _350  and  _353
REMARK  142  A    between atoms: _353  and  _354
REMARK  143  A    between atoms: _364  and  _366
REMARK  144  A    between atoms: _366  and  _367
REMARK  145  A    between atoms: _366  and  _369
REMARK  146  A    between atoms: _369  and  _370
REMARK  147  A    between atoms: _370  and  _371
REMARK  148  A    between atoms: _371  and  _372
REMARK  149  A    between atoms: _381  and  _383
REMARK  150  A    between atoms: _383  and  _384
REMARK  151  A    between atoms: _383  and  _386
REMARK  152  A    between atoms: _386  and  _387
REMARK  153  A    between atoms: _387  and  _388
REMARK  154  A    between atoms: _388  and  _389
REMARK  155  A    between atoms: _389  and  _390
REMARK  156  A    between atoms: _394  and  _396
REMARK  157  A    between atoms: _396  and  _397
REMARK  158  A    between atoms: _396  and  _399
REMARK  159  A    between atoms: _399  and  _400
REMARK  160  A    between atoms: _400  and  _401
REMARK  161  A    between atoms: _406  and  _408
REMARK  162  A    between atoms: _408  and  _409
REMARK  163  A    between atoms: _408  and  _411
REMARK  164  A    between atoms: _411  and  _412
REMARK                            x       y       z     vdW  Elec       q    Type
REMARK                         _______ _______ _______ _____ _____    ______ ____
ROOT
ATOM      1  O   HOH     1      10.192  16.614  18.387  0.00  0.00    +0.000 OA
ENDROOT
TORSDOF 0
REMARK  Name = ../refined-set-2016/3uj9/3uj9_pocket.pdb
REMARK  164 active torsions:
REMARK  status: ('A' for Active; 'I' for Inactive)
REMARK    1  A    between atoms: _1  and  _3
REMARK    2  A    between atoms: _3  and  _4
REMARK    3  A    between atoms: _3  and  _6
REMARK    4  A    between atoms: _6  and  _7
REMARK    5  A    between atoms: _7  and  _8
REMARK    6  A    between atoms: _13  and  _15
REMARK    7  A    between atoms: _15  and  _16
REMARK    8  A    between atoms: _15  and  _18
REMARK    9  A    between atoms: _18  and  _19
REMARK   10  A    between atoms: _24  and  _25
REMARK   11  A    between atoms: _27  and  _29
REMARK   12  A    between atoms: _29  and  _30
REMARK   13  A    between atoms: _32  and  _34
REMARK   14  A    between atoms: _34  and  _35
REMARK   15  A    between atoms: _34  and  _37
REMARK   16  A    between atoms: _37  and  _38
REMARK   17  A    between atoms: _43  and  _44
REMARK   18  A    between atoms: _46  and  _48
REMARK   19  A    between atoms: _48  and  _49
REMARK   20  A    between atoms: _48  and  _51
REMARK   21  A    between atoms: _51  and  _52
REMARK   22  A    between atoms: _55  and  _57
REMARK   23  A    between atoms: _57  and  _58
REMARK   24  A    between atoms: _57  and  _60
REMARK   25  A    between atoms: _60  and  _61
REMARK   26  A    between atoms: _67  and  _69
REMARK   27  A    between atoms: _69  and  _70
REMARK   28  A    between atoms: _69  and  _72
REMARK   29  A    between atoms: _72  and  _73
REMARK   30  A    between atoms: _78  and  _79
REMARK   31  A    between atoms: _81  and  _83
REMARK   32  A    between atoms: _83  and  _84
REMARK   33  A    between atoms: _83  and  _86
REMARK   34  A    between atoms: _86  and  _87
REMARK   35  A    between atoms: _90  and  _92
REMARK   36  A    between atoms: _92  and  _93
REMARK   37  A    between atoms: _92  and  _95
REMARK   38  A    between atoms: _95  and  _96
REMARK   39  A    between atoms: _98  and  _100
REMARK   40  A    between atoms: _100  and  _101
REMARK   41  A    between atoms: _100  and  _103
REMARK   42  A    between atoms: _103  and  _104
REMARK   43  A    between atoms: _106  and  _108
REMARK   44  A    between atoms: _108  and  _109
REMARK   45  A    between atoms: _111  and  _113
REMARK   46  A    between atoms: _113  and  _114
REMARK   47  A    between atoms: _116  and  _118
REMARK   48  A    between atoms: _118  and  _119
REMARK   49  A    between atoms: _121  and  _123
REMARK   50  A    between atoms: _123  and  _124
REMARK   51  A    between atoms: _126  and  _128
REMARK   52  A    between atoms: _128  and  _129
REMARK   53  A    between atoms: _128  and  _131
REMARK   54  A    between atoms: _131  and  _132
REMARK   55  A    between atoms: _135  and  _137
REMARK   56  A    between atoms: _137  and  _138
REMARK   57  A    between atoms: _137  and  _140
REMARK   58  A    between atoms: _140  and  _141
REMARK   59  A    between atoms: _144  and  _146
REMARK   60  A    between atoms: _146  and  _147
REMARK   61  A    between atoms: _146  and  _149
REMARK   62  A    between atoms: _149  and  _150
REMARK   63  A    between atoms: _150  and  _151
REMARK   64  A    between atoms: _151  and  _152
REMARK   65  A    between atoms: _161  and  _163
REMARK   66  A    between atoms: _163  and  _164
REMARK   67  A    between atoms: _163  and  _166
REMARK   68  A    between atoms: _166  and  _167
REMARK   69  A    between atoms: _170  and  _172
REMARK   70  A    between atoms: _172  and  _173
REMARK   71  A    between atoms: _176  and  _178
REMARK   72  A    between atoms: _178  and  _179
REMARK   73  A    between atoms: _178  and  _181
REMARK   74  A    between atoms: _181  and  _182
REMARK   75  A    between atoms: _185  and  _187
REMARK   76  A    between atoms: _187  and  _188
REMARK   77  A    between atoms: _187  and  _190
REMARK   78  A    between atoms: _190  and  _191
REMARK   79  A    between atoms: _194  and  _196
REMARK   80  A    between atoms: _196  and  _197
REMARK   81  A    between atoms: _196  and  _199
REMARK   82  A    between atoms: _199  and  _200
REMARK   83  A    between atoms: _205  and  _207
REMARK   84  A    between atoms: _207  and  _208
REMARK   85  A    between atoms: _207  and  _210
REMARK   86  A    between atoms: _210  and  _211
REMARK   87  A    between atoms: _214  and  _216
REMARK   88  A    between atoms: _216  and  _217
REMARK   89  A    between atoms: _216  and  _219
REMARK   90  A    between atoms: _219  and  _220
REMARK   91  A    between atoms: _223  and  _225
REMARK   92  A    between atoms: _225  and  _226
REMARK   93  A    between atoms: _225  and  _228
REMARK   94  A    between atoms: _228  and  _229
REMARK   95  A    between atoms: _234  and  _235
REMARK   96  A    between atoms: _237  and  _239
REMARK   97  A    between atoms: _239  and  _240
REMARK   98  A    between atoms: _239  and  _242
REMARK   99  A    between atoms: _242  and  _243
REMARK  100  A    between atoms: _248  and  _249
REMARK  101  A    between atoms: _251  and  _253
REMARK  102  A    between atoms: _253  and  _254
REMARK  103  A    between atoms: _253  and  _256
REMARK  104  A    between atoms: _256  and  _257
REMARK  105  A    between atoms: _257  and  _258
REMARK  106  A    between atoms: _258  and  _259
REMARK  107  A    between atoms: _268  and  _270
REMARK  108  A    between atoms: _270  and  _271
REMARK  109  A    between atoms: _270  and  _273
REMARK  110  A    between atoms: _273  and  _274
REMARK  111  A    between atoms: _279  and  _280
REMARK  112  A    between atoms: _282  and  _284
REMARK  113  A    between atoms: _284  and  _285
REMARK  114  A    between atoms: _284  and  _287
REMARK  115  A    between atoms: _287  and  _288
REMARK  116  A    between atoms: _291  and  _293
REMARK  117  A    between atoms: _293  and  _294
REMARK  118  A    between atoms: _293  and  _296
REMARK  119  A    between atoms: _296  and  _297
REMARK  120  A    between atoms: _307  and  _309
REMARK  121  A    between atoms: _309  and  _310
REMARK  122  A    between atoms: _309  and  _312
REMARK  123  A    between atoms: _312  and  _313
REMARK  124  A    between atoms: _316  and  _318
REMARK  125  A    between atoms: _318  and  _319
REMARK  126  A    between atoms: _318  and  _321
REMARK  127  A    between atoms: _321  and  _322
REMARK  128  A    between atoms: _322  and  _323
REMARK  129  A    between atoms: _326  and  _328
REMARK  130  A    between atoms: _328  and  _329
REMARK  131  A    between atoms: _328  and  _331
REMARK  132  A    between atoms: _331  and  _332
REMARK  133  A    between atoms: _334  and  _336
REMARK  134  A    between atoms: _336  and  _337
REMARK  135  A    between atoms: _336  and  _339
REMARK  136  A    between atoms: _339  and  _340
REMARK  137  A    between atoms: _343  and  _345
REMARK  138  A    between atoms: _345  and  _346
REMARK  139  A    between atoms: _348  and  _350
REMARK  140  A    between atoms: _350  and  _351
REMARK  141  A    between atoms: _350  and  _353
REMARK  142  A    between atoms: _353  and  _354
REMARK  143  A    between atoms: _364  and  _366
REMARK  144  A    between atoms: _366  and  _367
REMARK  145  A    between atoms: _366  and  _369
REMARK  146  A    between atoms: _369  and  _370
REMARK  147  A    between atoms: _370  and  _371
REMARK  148  A    between atoms: _371  and  _372
REMARK  149  A    between atoms: _381  and  _383
REMARK  150  A    between atoms: _383  and  _384
REMARK  151  A    between atoms: _383  and  _386
REMARK  152  A    between atoms: _386  and  _387
REMARK  153  A    between atoms: _387  and  _388
REMARK  154  A    between atoms: _388  and  _389
REMARK  155  A    between atoms: _389  and  _390
REMARK  156  A    between atoms: _394  and  _396
REMARK  157  A    between atoms: _396  and  _397
REMARK  158  A    between atoms: _396  and  _399
REMARK  159  A    between atoms: _399  and  _400
REMARK  160  A    between atoms: _400  and  _401
REMARK  161  A    between atoms: _406  and  _408
REMARK  162  A    between atoms: _408  and  _409
REMARK  163  A    between atoms: _408  and  _411
REMARK  164  A    between atoms: _411  and  _412
REMARK                            x       y       z     vdW  Elec       q    Type
REMARK                         _______ _______ _______ _____ _____    ______ ____
ROOT
ATOM      1  O   HOH     1      12.658   8.467  19.065  0.00  0.00    +0.000 OA
ENDROOT
TORSDOF 0
REMARK  Name = ../refined-set-2016/3uj9/3uj9_pocket.pdb
REMARK  164 active torsions:
REMARK  status: ('A' for Active; 'I' for Inactive)
REMARK    1  A    between atoms: _1  and  _3
REMARK    2  A    between atoms: _3  and  _4
REMARK    3  A    between atoms: _3  and  _6
REMARK    4  A    between atoms: _6  and  _7
REMARK    5  A    between atoms: _7  and  _8
REMARK    6  A    between atoms: _13  and  _15
REMARK    7  A    between atoms: _15  and  _16
REMARK    8  A    between atoms: _15  and  _18
REMARK    9  A    between atoms: _18  and  _19
REMARK   10  A    between atoms: _24  and  _25
REMARK   11  A    between atoms: _27  and  _29
REMARK   12  A    between atoms: _29  and  _30
REMARK   13  A    between atoms: _32  and  _34
REMARK   14  A    between atoms: _34  and  _35
REMARK   15  A    between atoms: _34  and  _37
REMARK   16  A    between atoms: _37  and  _38
REMARK   17  A    between atoms: _43  and  _44
REMARK   18  A    between atoms: _46  and  _48
REMARK   19  A    between atoms: _48  and  _49
REMARK   20  A    between atoms: _48  and  _51
REMARK   21  A    between atoms: _51  and  _52
REMARK   22  A    between atoms: _55  and  _57
REMARK   23  A    between atoms: _57  and  _58
REMARK   24  A    between atoms: _57  and  _60
REMARK   25  A    between atoms: _60  and  _61
REMARK   26  A    between atoms: _67  and  _69
REMARK   27  A    between atoms: _69  and  _70
REMARK   28  A    between atoms: _69  and  _72
REMARK   29  A    between atoms: _72  and  _73
REMARK   30  A    between atoms: _78  and  _79
REMARK   31  A    between atoms: _81  and  _83
REMARK   32  A    between atoms: _83  and  _84
REMARK   33  A    between atoms: _83  and  _86
REMARK   34  A    between atoms: _86  and  _87
REMARK   35  A    between atoms: _90  and  _92
REMARK   36  A    between atoms: _92  and  _93
REMARK   37  A    between atoms: _92  and  _95
REMARK   38  A    between atoms: _95  and  _96
REMARK   39  A    between atoms: _98  and  _100
REMARK   40  A    between atoms: _100  and  _101
REMARK   41  A    between atoms: _100  and  _103
REMARK   42  A    between atoms: _103  and  _104
REMARK   43  A    between atoms: _106  and  _108
REMARK   44  A    between atoms: _108  and  _109
REMARK   45  A    between atoms: _111  and  _113
REMARK   46  A    between atoms: _113  and  _114
REMARK   47  A    between atoms: _116  and  _118
REMARK   48  A    between atoms: _118  and  _119
REMARK   49  A    between atoms: _121  and  _123
REMARK   50  A    between atoms: _123  and  _124
REMARK   51  A    between atoms: _126  and  _128
REMARK   52  A    between atoms: _128  and  _129
REMARK   53  A    between atoms: _128  and  _131
REMARK   54  A    between atoms: _131  and  _132
REMARK   55  A    between atoms: _135  and  _137
REMARK   56  A    between atoms: _137  and  _138
REMARK   57  A    between atoms: _137  and  _140
REMARK   58  A    between atoms: _140  and  _141
REMARK   59  A    between atoms: _144  and  _146
REMARK   60  A    between atoms: _146  and  _147
REMARK   61  A    between atoms: _146  and  _149
REMARK   62  A    between atoms: _149  and  _150
REMARK   63  A    between atoms: _150  and  _151
REMARK   64  A    between atoms: _151  and  _152
REMARK   65  A    between atoms: _161  and  _163
REMARK   66  A    between atoms: _163  and  _164
REMARK   67  A    between atoms: _163  and  _166
REMARK   68  A    between atoms: _166  and  _167
REMARK   69  A    between atoms: _170  and  _172
REMARK   70  A    between atoms: _172  and  _173
REMARK   71  A    between atoms: _176  and  _178
REMARK   72  A    between atoms: _178  and  _179
REMARK   73  A    between atoms: _178  and  _181
REMARK   74  A    between atoms: _181  and  _182
REMARK   75  A    between atoms: _185  and  _187
REMARK   76  A    between atoms: _187  and  _188
REMARK   77  A    between atoms: _187  and  _190
REMARK   78  A    between atoms: _190  and  _191
REMARK   79  A    between atoms: _194  and  _196
REMARK   80  A    between atoms: _196  and  _197
REMARK   81  A    between atoms: _196  and  _199
REMARK   82  A    between atoms: _199  and  _200
REMARK   83  A    between atoms: _205  and  _207
REMARK   84  A    between atoms: _207  and  _208
REMARK   85  A    between atoms: _207  and  _210
REMARK   86  A    between atoms: _210  and  _211
REMARK   87  A    between atoms: _214  and  _216
REMARK   88  A    between atoms: _216  and  _217
REMARK   89  A    between atoms: _216  and  _219
REMARK   90  A    between atoms: _219  and  _220
REMARK   91  A    between atoms: _223  and  _225
REMARK   92  A    between atoms: _225  and  _226
REMARK   93  A    between atoms: _225  and  _228
REMARK   94  A    between atoms: _228  and  _229
REMARK   95  A    between atoms: _234  and  _235
REMARK   96  A    between atoms: _237  and  _239
REMARK   97  A    between atoms: _239  and  _240
REMARK   98  A    between atoms: _239  and  _242
REMARK   99  A    between atoms: _242  and  _243
REMARK  100  A    between atoms: _248  and  _249
REMARK  101  A    between atoms: _251  and  _253
REMARK  102  A    between atoms: _253  and  _254
REMARK  103  A    between atoms: _253  and  _256
REMARK  104  A    between atoms: _256  and  _257
REMARK  105  A    between atoms: _257  and  _258
REMARK  106  A    between atoms: _258  and  _259
REMARK  107  A    between atoms: _268  and  _270
REMARK  108  A    between atoms: _270  and  _271
REMARK  109  A    between atoms: _270  and  _273
REMARK  110  A    between atoms: _273  and  _274
REMARK  111  A    between atoms: _279  and  _280
REMARK  112  A    between atoms: _282  and  _284
REMARK  113  A    between atoms: _284  and  _285
REMARK  114  A    between atoms: _284  and  _287
REMARK  115  A    between atoms: _287  and  _288
REMARK  116  A    between atoms: _291  and  _293
REMARK  117  A    between atoms: _293  and  _294
REMARK  118  A    between atoms: _293  and  _296
REMARK  119  A    between atoms: _296  and  _297
REMARK  120  A    between atoms: _307  and  _309
REMARK  121  A    between atoms: _309  and  _310
REMARK  122  A    between atoms: _309  and  _312
REMARK  123  A    between atoms: _312  and  _313
REMARK  124  A    between atoms: _316  and  _318
REMARK  125  A    between atoms: _318  and  _319
REMARK  126  A    between atoms: _318  and  _321
REMARK  127  A    between atoms: _321  and  _322
REMARK  128  A    between atoms: _322  and  _323
REMARK  129  A    between atoms: _326  and  _328
REMARK  130  A    between atoms: _328  and  _329
REMARK  131  A    between atoms: _328  and  _331
REMARK  132  A    between atoms: _331  and  _332
REMARK  133  A    between atoms: _334  and  _336
REMARK  134  A    between atoms: _336  and  _337
REMARK  135  A    between atoms: _336  and  _339
REMARK  136  A    between atoms: _339  and  _340
REMARK  137  A    between atoms: _343  and  _345
REMARK  138  A    between atoms: _345  and  _346
REMARK  139  A    between atoms: _348  and  _350
REMARK  140  A    between atoms: _350  and  _351
REMARK  141  A    between atoms: _350  and  _353
REMARK  142  A    between atoms: _353  and  _354
REMARK  143  A    between atoms: _364  and  _366
REMARK  144  A    between atoms: _366  and  _367
REMARK  145  A    between atoms: _366  and  _369
REMARK  146  A    between atoms: _369  and  _370
REMARK  147  A    between atoms: _370  and  _371
REMARK  148  A    between atoms: _371  and  _372
REMARK  149  A    between atoms: _381  and  _383
REMARK  150  A    between atoms: _383  and  _384
REMARK  151  A    between atoms: _383  and  _386
REMARK  152  A    between atoms: _386  and  _387
REMARK  153  A    between atoms: _387  and  _388
REMARK  154  A    between atoms: _388  and  _389
REMARK  155  A    between atoms: _389  and  _390
REMARK  156  A    between atoms: _394  and  _396
REMARK  157  A    between atoms: _396  and  _397
REMARK  158  A    between atoms: _396  and  _399
REMARK  159  A    between atoms: _399  and  _400
REMARK  160  A    between atoms: _400  and  _401
REMARK  161  A    between atoms: _406  and  _408
REMARK  162  A    between atoms: _408  and  _409
REMARK  163  A    between atoms: _408  and  _411
REMARK  164  A    between atoms: _411  and  _412
REMARK                            x       y       z     vdW  Elec       q    Type
REMARK                         _______ _______ _______ _____ _____    ______ ____
ROOT
ATOM      1  O   HOH     1      18.883   6.478  14.527  0.00  0.00    +0.000 OA
ENDROOT
TORSDOF 0
REMARK  Name = ../refined-set-2016/3uj9/3uj9_pocket.pdb
REMARK  164 active torsions:
REMARK  status: ('A' for Active; 'I' for Inactive)
REMARK    1  A    between atoms: _1  and  _3
REMARK    2  A    between atoms: _3  and  _4
REMARK    3  A    between atoms: _3  and  _6
REMARK    4  A    between atoms: _6  and  _7
REMARK    5  A    between atoms: _7  and  _8
REMARK    6  A    between atoms: _13  and  _15
REMARK    7  A    between atoms: _15  and  _16
REMARK    8  A    between atoms: _15  and  _18
REMARK    9  A    between atoms: _18  and  _19
REMARK   10  A    between atoms: _24  and  _25
REMARK   11  A    between atoms: _27  and  _29
REMARK   12  A    between atoms: _29  and  _30
REMARK   13  A    between atoms: _32  and  _34
REMARK   14  A    between atoms: _34  and  _35
REMARK   15  A    between atoms: _34  and  _37
REMARK   16  A    between atoms: _37  and  _38
REMARK   17  A    between atoms: _43  and  _44
REMARK   18  A    between atoms: _46  and  _48
REMARK   19  A    between atoms: _48  and  _49
REMARK   20  A    between atoms: _48  and  _51
REMARK   21  A    between atoms: _51  and  _52
REMARK   22  A    between atoms: _55  and  _57
REMARK   23  A    between atoms: _57  and  _58
REMARK   24  A    between atoms: _57  and  _60
REMARK   25  A    between atoms: _60  and  _61
REMARK   26  A    between atoms: _67  and  _69
REMARK   27  A    between atoms: _69  and  _70
REMARK   28  A    between atoms: _69  and  _72
REMARK   29  A    between atoms: _72  and  _73
REMARK   30  A    between atoms: _78  and  _79
REMARK   31  A    between atoms: _81  and  _83
REMARK   32  A    between atoms: _83  and  _84
REMARK   33  A    between atoms: _83  and  _86
REMARK   34  A    between atoms: _86  and  _87
REMARK   35  A    between atoms: _90  and  _92
REMARK   36  A    between atoms: _92  and  _93
REMARK   37  A    between atoms: _92  and  _95
REMARK   38  A    between atoms: _95  and  _96
REMARK   39  A    between atoms: _98  and  _100
REMARK   40  A    between atoms: _100  and  _101
REMARK   41  A    between atoms: _100  and  _103
REMARK   42  A    between atoms: _103  and  _104
REMARK   43  A    between atoms: _106  and  _108
REMARK   44  A    between atoms: _108  and  _109
REMARK   45  A    between atoms: _111  and  _113
REMARK   46  A    between atoms: _113  and  _114
REMARK   47  A    between atoms: _116  and  _118
REMARK   48  A    between atoms: _118  and  _119
REMARK   49  A    between atoms: _121  and  _123
REMARK   50  A    between atoms: _123  and  _124
REMARK   51  A    between atoms: _126  and  _128
REMARK   52  A    between atoms: _128  and  _129
REMARK   53  A    between atoms: _128  and  _131
REMARK   54  A    between atoms: _131  and  _132
REMARK   55  A    between atoms: _135  and  _137
REMARK   56  A    between atoms: _137  and  _138
REMARK   57  A    between atoms: _137  and  _140
REMARK   58  A    between atoms: _140  and  _141
REMARK   59  A    between atoms: _144  and  _146
REMARK   60  A    between atoms: _146  and  _147
REMARK   61  A    between atoms: _146  and  _149
REMARK   62  A    between atoms: _149  and  _150
REMARK   63  A    between atoms: _150  and  _151
REMARK   64  A    between atoms: _151  and  _152
REMARK   65  A    between atoms: _161  and  _163
REMARK   66  A    between atoms: _163  and  _164
REMARK   67  A    between atoms: _163  and  _166
REMARK   68  A    between atoms: _166  and  _167
REMARK   69  A    between atoms: _170  and  _172
REMARK   70  A    between atoms: _172  and  _173
REMARK   71  A    between atoms: _176  and  _178
REMARK   72  A    between atoms: _178  and  _179
REMARK   73  A    between atoms: _178  and  _181
REMARK   74  A    between atoms: _181  and  _182
REMARK   75  A    between atoms: _185  and  _187
REMARK   76  A    between atoms: _187  and  _188
REMARK   77  A    between atoms: _187  and  _190
REMARK   78  A    between atoms: _190  and  _191
REMARK   79  A    between atoms: _194  and  _196
REMARK   80  A    between atoms: _196  and  _197
REMARK   81  A    between atoms: _196  and  _199
REMARK   82  A    between atoms: _199  and  _200
REMARK   83  A    between atoms: _205  and  _207
REMARK   84  A    between atoms: _207  and  _208
REMARK   85  A    between atoms: _207  and  _210
REMARK   86  A    between atoms: _210  and  _211
REMARK   87  A    between atoms: _214  and  _216
REMARK   88  A    between atoms: _216  and  _217
REMARK   89  A    between atoms: _216  and  _219
REMARK   90  A    between atoms: _219  and  _220
REMARK   91  A    between atoms: _223  and  _225
REMARK   92  A    between atoms: _225  and  _226
REMARK   93  A    between atoms: _225  and  _228
REMARK   94  A    between atoms: _228  and  _229
REMARK   95  A    between atoms: _234  and  _235
REMARK   96  A    between atoms: _237  and  _239
REMARK   97  A    between atoms: _239  and  _240
REMARK   98  A    between atoms: _239  and  _242
REMARK   99  A    between atoms: _242  and  _243
REMARK  100  A    between atoms: _248  and  _249
REMARK  101  A    between atoms: _251  and  _253
REMARK  102  A    between atoms: _253  and  _254
REMARK  103  A    between atoms: _253  and  _256
REMARK  104  A    between atoms: _256  and  _257
REMARK  105  A    between atoms: _257  and  _258
REMARK  106  A    between atoms: _258  and  _259
REMARK  107  A    between atoms: _268  and  _270
REMARK  108  A    between atoms: _270  and  _271
REMARK  109  A    between atoms: _270  and  _273
REMARK  110  A    between atoms: _273  and  _274
REMARK  111  A    between atoms: _279  and  _280
REMARK  112  A    between atoms: _282  and  _284
REMARK  113  A    between atoms: _284  and  _285
REMARK  114  A    between atoms: _284  and  _287
REMARK  115  A    between atoms: _287  and  _288
REMARK  116  A    between atoms: _291  and  _293
REMARK  117  A    between atoms: _293  and  _294
REMARK  118  A    between atoms: _293  and  _296
REMARK  119  A    between atoms: _296  and  _297
REMARK  120  A    between atoms: _307  and  _309
REMARK  121  A    between atoms: _309  and  _310
REMARK  122  A    between atoms: _309  and  _312
REMARK  123  A    between atoms: _312  and  _313
REMARK  124  A    between atoms: _316  and  _318
REMARK  125  A    between atoms: _318  and  _319
REMARK  126  A    between atoms: _318  and  _321
REMARK  127  A    between atoms: _321  and  _322
REMARK  128  A    between atoms: _322  and  _323
REMARK  129  A    between atoms: _326  and  _328
REMARK  130  A    between atoms: _328  and  _329
REMARK  131  A    between atoms: _328  and  _331
REMARK  132  A    between atoms: _331  and  _332
REMARK  133  A    between atoms: _334  and  _336
REMARK  134  A    between atoms: _336  and  _337
REMARK  135  A    between atoms: _336  and  _339
REMARK  136  A    between atoms: _339  and  _340
REMARK  137  A    between atoms: _343  and  _345
REMARK  138  A    between atoms: _345  and  _346
REMARK  139  A    between atoms: _348  and  _350
REMARK  140  A    between atoms: _350  and  _351
REMARK  141  A    between atoms: _350  and  _353
REMARK  142  A    between atoms: _353  and  _354
REMARK  143  A    between atoms: _364  and  _366
REMARK  144  A    between atoms: _366  and  _367
REMARK  145  A    between atoms: _366  and  _369
REMARK  146  A    between atoms: _369  and  _370
REMARK  147  A    between atoms: _370  and  _371
REMARK  148  A    between atoms: _371  and  _372
REMARK  149  A    between atoms: _381  and  _383
REMARK  150  A    between atoms: _383  and  _384
REMARK  151  A    between atoms: _383  and  _386
REMARK  152  A    between atoms: _386  and  _387
REMARK  153  A    between atoms: _387  and  _388
REMARK  154  A    between atoms: _388  and  _389
REMARK  155  A    between atoms: _389  and  _390
REMARK  156  A    between atoms: _394  and  _396
REMARK  157  A    between atoms: _396  and  _397
REMARK  158  A    between atoms: _396  and  _399
REMARK  159  A    between atoms: _399  and  _400
REMARK  160  A    between atoms: _400  and  _401
REMARK  161  A    between atoms: _406  and  _408
REMARK  162  A    between atoms: _408  and  _409
REMARK  163  A    between atoms: _408  and  _411
REMARK  164  A    between atoms: _411  and  _412
REMARK                            x       y       z     vdW  Elec       q    Type
REMARK                         _______ _______ _______ _____ _____    ______ ____
ROOT
ATOM      1  O   HOH     1      19.874  19.585  12.458  0.00  0.00    +0.000 OA
ENDROOT
TORSDOF 0
REMARK  Name = ../refined-set-2016/3uj9/3uj9_pocket.pdb
REMARK  164 active torsions:
REMARK  status: ('A' for Active; 'I' for Inactive)
REMARK    1  A    between atoms: _1  and  _3
REMARK    2  A    between atoms: _3  and  _4
REMARK    3  A    between atoms: _3  and  _6
REMARK    4  A    between atoms: _6  and  _7
REMARK    5  A    between atoms: _7  and  _8
REMARK    6  A    between atoms: _13  and  _15
REMARK    7  A    between atoms: _15  and  _16
REMARK    8  A    between atoms: _15  and  _18
REMARK    9  A    between atoms: _18  and  _19
REMARK   10  A    between atoms: _24  and  _25
REMARK   11  A    between atoms: _27  and  _29
REMARK   12  A    between atoms: _29  and  _30
REMARK   13  A    between atoms: _32  and  _34
REMARK   14  A    between atoms: _34  and  _35
REMARK   15  A    between atoms: _34  and  _37
REMARK   16  A    between atoms: _37  and  _38
REMARK   17  A    between atoms: _43  and  _44
REMARK   18  A    between atoms: _46  and  _48
REMARK   19  A    between atoms: _48  and  _49
REMARK   20  A    between atoms: _48  and  _51
REMARK   21  A    between atoms: _51  and  _52
REMARK   22  A    between atoms: _55  and  _57
REMARK   23  A    between atoms: _57  and  _58
REMARK   24  A    between atoms: _57  and  _60
REMARK   25  A    between atoms: _60  and  _61
REMARK   26  A    between atoms: _67  and  _69
REMARK   27  A    between atoms: _69  and  _70
REMARK   28  A    between atoms: _69  and  _72
REMARK   29  A    between atoms: _72  and  _73
REMARK   30  A    between atoms: _78  and  _79
REMARK   31  A    between atoms: _81  and  _83
REMARK   32  A    between atoms: _83  and  _84
REMARK   33  A    between atoms: _83  and  _86
REMARK   34  A    between atoms: _86  and  _87
REMARK   35  A    between atoms: _90  and  _92
REMARK   36  A    between atoms: _92  and  _93
REMARK   37  A    between atoms: _92  and  _95
REMARK   38  A    between atoms: _95  and  _96
REMARK   39  A    between atoms: _98  and  _100
REMARK   40  A    between atoms: _100  and  _101
REMARK   41  A    between atoms: _100  and  _103
REMARK   42  A    between atoms: _103  and  _104
REMARK   43  A    between atoms: _106  and  _108
REMARK   44  A    between atoms: _108  and  _109
REMARK   45  A    between atoms: _111  and  _113
REMARK   46  A    between atoms: _113  and  _114
REMARK   47  A    between atoms: _116  and  _118
REMARK   48  A    between atoms: _118  and  _119
REMARK   49  A    between atoms: _121  and  _123
REMARK   50  A    between atoms: _123  and  _124
REMARK   51  A    between atoms: _126  and  _128
REMARK   52  A    between atoms: _128  and  _129
REMARK   53  A    between atoms: _128  and  _131
REMARK   54  A    between atoms: _131  and  _132
REMARK   55  A    between atoms: _135  and  _137
REMARK   56  A    between atoms: _137  and  _138
REMARK   57  A    between atoms: _137  and  _140
REMARK   58  A    between atoms: _140  and  _141
REMARK   59  A    between atoms: _144  and  _146
REMARK   60  A    between atoms: _146  and  _147
REMARK   61  A    between atoms: _146  and  _149
REMARK   62  A    between atoms: _149  and  _150
REMARK   63  A    between atoms: _150  and  _151
REMARK   64  A    between atoms: _151  and  _152
REMARK   65  A    between atoms: _161  and  _163
REMARK   66  A    between atoms: _163  and  _164
REMARK   67  A    between atoms: _163  and  _166
REMARK   68  A    between atoms: _166  and  _167
REMARK   69  A    between atoms: _170  and  _172
REMARK   70  A    between atoms: _172  and  _173
REMARK   71  A    between atoms: _176  and  _178
REMARK   72  A    between atoms: _178  and  _179
REMARK   73  A    between atoms: _178  and  _181
REMARK   74  A    between atoms: _181  and  _182
REMARK   75  A    between atoms: _185  and  _187
REMARK   76  A    between atoms: _187  and  _188
REMARK   77  A    between atoms: _187  and  _190
REMARK   78  A    between atoms: _190  and  _191
REMARK   79  A    between atoms: _194  and  _196
REMARK   80  A    between atoms: _196  and  _197
REMARK   81  A    between atoms: _196  and  _199
REMARK   82  A    between atoms: _199  and  _200
REMARK   83  A    between atoms: _205  and  _207
REMARK   84  A    between atoms: _207  and  _208
REMARK   85  A    between atoms: _207  and  _210
REMARK   86  A    between atoms: _210  and  _211
REMARK   87  A    between atoms: _214  and  _216
REMARK   88  A    between atoms: _216  and  _217
REMARK   89  A    between atoms: _216  and  _219
REMARK   90  A    between atoms: _219  and  _220
REMARK   91  A    between atoms: _223  and  _225
REMARK   92  A    between atoms: _225  and  _226
REMARK   93  A    between atoms: _225  and  _228
REMARK   94  A    between atoms: _228  and  _229
REMARK   95  A    between atoms: _234  and  _235
REMARK   96  A    between atoms: _237  and  _239
REMARK   97  A    between atoms: _239  and  _240
REMARK   98  A    between atoms: _239  and  _242
REMARK   99  A    between atoms: _242  and  _243
REMARK  100  A    between atoms: _248  and  _249
REMARK  101  A    between atoms: _251  and  _253
REMARK  102  A    between atoms: _253  and  _254
REMARK  103  A    between atoms: _253  and  _256
REMARK  104  A    between atoms: _256  and  _257
REMARK  105  A    between atoms: _257  and  _258
REMARK  106  A    between atoms: _258  and  _259
REMARK  107  A    between atoms: _268  and  _270
REMARK  108  A    between atoms: _270  and  _271
REMARK  109  A    between atoms: _270  and  _273
REMARK  110  A    between atoms: _273  and  _274
REMARK  111  A    between atoms: _279  and  _280
REMARK  112  A    between atoms: _282  and  _284
REMARK  113  A    between atoms: _284  and  _285
REMARK  114  A    between atoms: _284  and  _287
REMARK  115  A    between atoms: _287  and  _288
REMARK  116  A    between atoms: _291  and  _293
REMARK  117  A    between atoms: _293  and  _294
REMARK  118  A    between atoms: _293  and  _296
REMARK  119  A    between atoms: _296  and  _297
REMARK  120  A    between atoms: _307  and  _309
REMARK  121  A    between atoms: _309  and  _310
REMARK  122  A    between atoms: _309  and  _312
REMARK  123  A    between atoms: _312  and  _313
REMARK  124  A    between atoms: _316  and  _318
REMARK  125  A    between atoms: _318  and  _319
REMARK  126  A    between atoms: _318  and  _321
REMARK  127  A    between atoms: _321  and  _322
REMARK  128  A    between atoms: _322  and  _323
REMARK  129  A    between atoms: _326  and  _328
REMARK  130  A    between atoms: _328  and  _329
REMARK  131  A    between atoms: _328  and  _331
REMARK  132  A    between atoms: _331  and  _332
REMARK  133  A    between atoms: _334  and  _336
REMARK  134  A    between atoms: _336  and  _337
REMARK  135  A    between atoms: _336  and  _339
REMARK  136  A    between atoms: _339  and  _340
REMARK  137  A    between atoms: _343  and  _345
REMARK  138  A    between atoms: _345  and  _346
REMARK  139  A    between atoms: _348  and  _350
REMARK  140  A    between atoms: _350  and  _351
REMARK  141  A    between atoms: _350  and  _353
REMARK  142  A    between atoms: _353  and  _354
REMARK  143  A    between atoms: _364  and  _366
REMARK  144  A    between atoms: _366  and  _367
REMARK  145  A    between atoms: _366  and  _369
REMARK  146  A    between atoms: _369  and  _370
REMARK  147  A    between atoms: _370  and  _371
REMARK  148  A    between atoms: _371  and  _372
REMARK  149  A    between atoms: _381  and  _383
REMARK  150  A    between atoms: _383  and  _384
REMARK  151  A    between atoms: _383  and  _386
REMARK  152  A    between atoms: _386  and  _387
REMARK  153  A    between atoms: _387  and  _388
REMARK  154  A    between atoms: _388  and  _389
REMARK  155  A    between atoms: _389  and  _390
REMARK  156  A    between atoms: _394  and  _396
REMARK  157  A    between atoms: _396  and  _397
REMARK  158  A    between atoms: _396  and  _399
REMARK  159  A    between atoms: _399  and  _400
REMARK  160  A    between atoms: _400  and  _401
REMARK  161  A    between atoms: _406  and  _408
REMARK  162  A    between atoms: _408  and  _409
REMARK  163  A    between atoms: _408  and  _411
REMARK  164  A    between atoms: _411  and  _412
REMARK                            x       y       z     vdW  Elec       q    Type
REMARK                         _______ _______ _______ _____ _____    ______ ____
ROOT
ATOM      1  O   HOH     1      16.783   7.387  12.912  0.00  0.00    +0.000 OA
ENDROOT
TORSDOF 0
REMARK  Name = ../refined-set-2016/3uj9/3uj9_pocket.pdb
REMARK  164 active torsions:
REMARK  status: ('A' for Active; 'I' for Inactive)
REMARK    1  A    between atoms: _1  and  _3
REMARK    2  A    between atoms: _3  and  _4
REMARK    3  A    between atoms: _3  and  _6
REMARK    4  A    between atoms: _6  and  _7
REMARK    5  A    between atoms: _7  and  _8
REMARK    6  A    between atoms: _13  and  _15
REMARK    7  A    between atoms: _15  and  _16
REMARK    8  A    between atoms: _15  and  _18
REMARK    9  A    between atoms: _18  and  _19
REMARK   10  A    between atoms: _24  and  _25
REMARK   11  A    between atoms: _27  and  _29
REMARK   12  A    between atoms: _29  and  _30
REMARK   13  A    between atoms: _32  and  _34
REMARK   14  A    between atoms: _34  and  _35
REMARK   15  A    between atoms: _34  and  _37
REMARK   16  A    between atoms: _37  and  _38
REMARK   17  A    between atoms: _43  and  _44
REMARK   18  A    between atoms: _46  and  _48
REMARK   19  A    between atoms: _48  and  _49
REMARK   20  A    between atoms: _48  and  _51
REMARK   21  A    between atoms: _51  and  _52
REMARK   22  A    between atoms: _55  and  _57
REMARK   23  A    between atoms: _57  and  _58
REMARK   24  A    between atoms: _57  and  _60
REMARK   25  A    between atoms: _60  and  _61
REMARK   26  A    between atoms: _67  and  _69
REMARK   27  A    between atoms: _69  and  _70
REMARK   28  A    between atoms: _69  and  _72
REMARK   29  A    between atoms: _72  and  _73
REMARK   30  A    between atoms: _78  and  _79
REMARK   31  A    between atoms: _81  and  _83
REMARK   32  A    between atoms: _83  and  _84
REMARK   33  A    between atoms: _83  and  _86
REMARK   34  A    between atoms: _86  and  _87
REMARK   35  A    between atoms: _90  and  _92
REMARK   36  A    between atoms: _92  and  _93
REMARK   37  A    between atoms: _92  and  _95
REMARK   38  A    between atoms: _95  and  _96
REMARK   39  A    between atoms: _98  and  _100
REMARK   40  A    between atoms: _100  and  _101
REMARK   41  A    between atoms: _100  and  _103
REMARK   42  A    between atoms: _103  and  _104
REMARK   43  A    between atoms: _106  and  _108
REMARK   44  A    between atoms: _108  and  _109
REMARK   45  A    between atoms: _111  and  _113
REMARK   46  A    between atoms: _113  and  _114
REMARK   47  A    between atoms: _116  and  _118
REMARK   48  A    between atoms: _118  and  _119
REMARK   49  A    between atoms: _121  and  _123
REMARK   50  A    between atoms: _123  and  _124
REMARK   51  A    between atoms: _126  and  _128
REMARK   52  A    between atoms: _128  and  _129
REMARK   53  A    between atoms: _128  and  _131
REMARK   54  A    between atoms: _131  and  _132
REMARK   55  A    between atoms: _135  and  _137
REMARK   56  A    between atoms: _137  and  _138
REMARK   57  A    between atoms: _137  and  _140
REMARK   58  A    between atoms: _140  and  _141
REMARK   59  A    between atoms: _144  and  _146
REMARK   60  A    between atoms: _146  and  _147
REMARK   61  A    between atoms: _146  and  _149
REMARK   62  A    between atoms: _149  and  _150
REMARK   63  A    between atoms: _150  and  _151
REMARK   64  A    between atoms: _151  and  _152
REMARK   65  A    between atoms: _161  and  _163
REMARK   66  A    between atoms: _163  and  _164
REMARK   67  A    between atoms: _163  and  _166
REMARK   68  A    between atoms: _166  and  _167
REMARK   69  A    between atoms: _170  and  _172
REMARK   70  A    between atoms: _172  and  _173
REMARK   71  A    between atoms: _176  and  _178
REMARK   72  A    between atoms: _178  and  _179
REMARK   73  A    between atoms: _178  and  _181
REMARK   74  A    between atoms: _181  and  _182
REMARK   75  A    between atoms: _185  and  _187
REMARK   76  A    between atoms: _187  and  _188
REMARK   77  A    between atoms: _187  and  _190
REMARK   78  A    between atoms: _190  and  _191
REMARK   79  A    between atoms: _194  and  _196
REMARK   80  A    between atoms: _196  and  _197
REMARK   81  A    between atoms: _196  and  _199
REMARK   82  A    between atoms: _199  and  _200
REMARK   83  A    between atoms: _205  and  _207
REMARK   84  A    between atoms: _207  and  _208
REMARK   85  A    between atoms: _207  and  _210
REMARK   86  A    between atoms: _210  and  _211
REMARK   87  A    between atoms: _214  and  _216
REMARK   88  A    between atoms: _216  and  _217
REMARK   89  A    between atoms: _216  and  _219
REMARK   90  A    between atoms: _219  and  _220
REMARK   91  A    between atoms: _223  and  _225
REMARK   92  A    between atoms: _225  and  _226
REMARK   93  A    between atoms: _225  and  _228
REMARK   94  A    between atoms: _228  and  _229
REMARK   95  A    between atoms: _234  and  _235
REMARK   96  A    between atoms: _237  and  _239
REMARK   97  A    between atoms: _239  and  _240
REMARK   98  A    between atoms: _239  and  _242
REMARK   99  A    between atoms: _242  and  _243
REMARK  100  A    between atoms: _248  and  _249
REMARK  101  A    between atoms: _251  and  _253
REMARK  102  A    between atoms: _253  and  _254
REMARK  103  A    between atoms: _253  and  _256
REMARK  104  A    between atoms: _256  and  _257
REMARK  105  A    between atoms: _257  and  _258
REMARK  106  A    between atoms: _258  and  _259
REMARK  107  A    between atoms: _268  and  _270
REMARK  108  A    between atoms: _270  and  _271
REMARK  109  A    between atoms: _270  and  _273
REMARK  110  A    between atoms: _273  and  _274
REMARK  111  A    between atoms: _279  and  _280
REMARK  112  A    between atoms: _282  and  _284
REMARK  113  A    between atoms: _284  and  _285
REMARK  114  A    between atoms: _284  and  _287
REMARK  115  A    between atoms: _287  and  _288
REMARK  116  A    between atoms: _291  and  _293
REMARK  117  A    between atoms: _293  and  _294
REMARK  118  A    between atoms: _293  and  _296
REMARK  119  A    between atoms: _296  and  _297
REMARK  120  A    between atoms: _307  and  _309
REMARK  121  A    between atoms: _309  and  _310
REMARK  122  A    between atoms: _309  and  _312
REMARK  123  A    between atoms: _312  and  _313
REMARK  124  A    between atoms: _316  and  _318
REMARK  125  A    between atoms: _318  and  _319
REMARK  126  A    between atoms: _318  and  _321
REMARK  127  A    between atoms: _321  and  _322
REMARK  128  A    between atoms: _322  and  _323
REMARK  129  A    between atoms: _326  and  _328
REMARK  130  A    between atoms: _328  and  _329
REMARK  131  A    between atoms: _328  and  _331
REMARK  132  A    between atoms: _331  and  _332
REMARK  133  A    between atoms: _334  and  _336
REMARK  134  A    between atoms: _336  and  _337
REMARK  135  A    between atoms: _336  and  _339
REMARK  136  A    between atoms: _339  and  _340
REMARK  137  A    between atoms: _343  and  _345
REMARK  138  A    between atoms: _345  and  _346
REMARK  139  A    between atoms: _348  and  _350
REMARK  140  A    between atoms: _350  and  _351
REMARK  141  A    between atoms: _350  and  _353
REMARK  142  A    between atoms: _353  and  _354
REMARK  143  A    between atoms: _364  and  _366
REMARK  144  A    between atoms: _366  and  _367
REMARK  145  A    between atoms: _366  and  _369
REMARK  146  A    between atoms: _369  and  _370
REMARK  147  A    between atoms: _370  and  _371
REMARK  148  A    between atoms: _371  and  _372
REMARK  149  A    between atoms: _381  and  _383
REMARK  150  A    between atoms: _383  and  _384
REMARK  151  A    between atoms: _383  and  _386
REMARK  152  A    between atoms: _386  and  _387
REMARK  153  A    between atoms: _387  and  _388
REMARK  154  A    between atoms: _388  and  _389
REMARK  155  A    between atoms: _389  and  _390
REMARK  156  A    between atoms: _394  and  _396
REMARK  157  A    between atoms: _396  and  _397
REMARK  158  A    between atoms: _396  and  _399
REMARK  159  A    between atoms: _399  and  _400
REMARK  160  A    between atoms: _400  and  _401
REMARK  161  A    between atoms: _406  and  _408
REMARK  162  A    between atoms: _408  and  _409
REMARK  163  A    between atoms: _408  and  _411
REMARK  164  A    between atoms: _411  and  _412
REMARK                            x       y       z     vdW  Elec       q    Type
REMARK                         _______ _______ _______ _____ _____    ______ ____
ROOT
ATOM      1  O   HOH     1      13.150  15.176  25.921  0.00  0.00    +0.000 OA
ENDROOT
TORSDOF 0
REMARK  Name = ../refined-set-2016/3uj9/3uj9_pocket.pdb
REMARK  164 active torsions:
REMARK  status: ('A' for Active; 'I' for Inactive)
REMARK    1  A    between atoms: _1  and  _3
REMARK    2  A    between atoms: _3  and  _4
REMARK    3  A    between atoms: _3  and  _6
REMARK    4  A    between atoms: _6  and  _7
REMARK    5  A    between atoms: _7  and  _8
REMARK    6  A    between atoms: _13  and  _15
REMARK    7  A    between atoms: _15  and  _16
REMARK    8  A    between atoms: _15  and  _18
REMARK    9  A    between atoms: _18  and  _19
REMARK   10  A    between atoms: _24  and  _25
REMARK   11  A    between atoms: _27  and  _29
REMARK   12  A    between atoms: _29  and  _30
REMARK   13  A    between atoms: _32  and  _34
REMARK   14  A    between atoms: _34  and  _35
REMARK   15  A    between atoms: _34  and  _37
REMARK   16  A    between atoms: _37  and  _38
REMARK   17  A    between atoms: _43  and  _44
REMARK   18  A    between atoms: _46  and  _48
REMARK   19  A    between atoms: _48  and  _49
REMARK   20  A    between atoms: _48  and  _51
REMARK   21  A    between atoms: _51  and  _52
REMARK   22  A    between atoms: _55  and  _57
REMARK   23  A    between atoms: _57  and  _58
REMARK   24  A    between atoms: _57  and  _60
REMARK   25  A    between atoms: _60  and  _61
REMARK   26  A    between atoms: _67  and  _69
REMARK   27  A    between atoms: _69  and  _70
REMARK   28  A    between atoms: _69  and  _72
REMARK   29  A    between atoms: _72  and  _73
REMARK   30  A    between atoms: _78  and  _79
REMARK   31  A    between atoms: _81  and  _83
REMARK   32  A    between atoms: _83  and  _84
REMARK   33  A    between atoms: _83  and  _86
REMARK   34  A    between atoms: _86  and  _87
REMARK   35  A    between atoms: _90  and  _92
REMARK   36  A    between atoms: _92  and  _93
REMARK   37  A    between atoms: _92  and  _95
REMARK   38  A    between atoms: _95  and  _96
REMARK   39  A    between atoms: _98  and  _100
REMARK   40  A    between atoms: _100  and  _101
REMARK   41  A    between atoms: _100  and  _103
REMARK   42  A    between atoms: _103  and  _104
REMARK   43  A    between atoms: _106  and  _108
REMARK   44  A    between atoms: _108  and  _109
REMARK   45  A    between atoms: _111  and  _113
REMARK   46  A    between atoms: _113  and  _114
REMARK   47  A    between atoms: _116  and  _118
REMARK   48  A    between atoms: _118  and  _119
REMARK   49  A    between atoms: _121  and  _123
REMARK   50  A    between atoms: _123  and  _124
REMARK   51  A    between atoms: _126  and  _128
REMARK   52  A    between atoms: _128  and  _129
REMARK   53  A    between atoms: _128  and  _131
REMARK   54  A    between atoms: _131  and  _132
REMARK   55  A    between atoms: _135  and  _137
REMARK   56  A    between atoms: _137  and  _138
REMARK   57  A    between atoms: _137  and  _140
REMARK   58  A    between atoms: _140  and  _141
REMARK   59  A    between atoms: _144  and  _146
REMARK   60  A    between atoms: _146  and  _147
REMARK   61  A    between atoms: _146  and  _149
REMARK   62  A    between atoms: _149  and  _150
REMARK   63  A    between atoms: _150  and  _151
REMARK   64  A    between atoms: _151  and  _152
REMARK   65  A    between atoms: _161  and  _163
REMARK   66  A    between atoms: _163  and  _164
REMARK   67  A    between atoms: _163  and  _166
REMARK   68  A    between atoms: _166  and  _167
REMARK   69  A    between atoms: _170  and  _172
REMARK   70  A    between atoms: _172  and  _173
REMARK   71  A    between atoms: _176  and  _178
REMARK   72  A    between atoms: _178  and  _179
REMARK   73  A    between atoms: _178  and  _181
REMARK   74  A    between atoms: _181  and  _182
REMARK   75  A    between atoms: _185  and  _187
REMARK   76  A    between atoms: _187  and  _188
REMARK   77  A    between atoms: _187  and  _190
REMARK   78  A    between atoms: _190  and  _191
REMARK   79  A    between atoms: _194  and  _196
REMARK   80  A    between atoms: _196  and  _197
REMARK   81  A    between atoms: _196  and  _199
REMARK   82  A    between atoms: _199  and  _200
REMARK   83  A    between atoms: _205  and  _207
REMARK   84  A    between atoms: _207  and  _208
REMARK   85  A    between atoms: _207  and  _210
REMARK   86  A    between atoms: _210  and  _211
REMARK   87  A    between atoms: _214  and  _216
REMARK   88  A    between atoms: _216  and  _217
REMARK   89  A    between atoms: _216  and  _219
REMARK   90  A    between atoms: _219  and  _220
REMARK   91  A    between atoms: _223  and  _225
REMARK   92  A    between atoms: _225  and  _226
REMARK   93  A    between atoms: _225  and  _228
REMARK   94  A    between atoms: _228  and  _229
REMARK   95  A    between atoms: _234  and  _235
REMARK   96  A    between atoms: _237  and  _239
REMARK   97  A    between atoms: _239  and  _240
REMARK   98  A    between atoms: _239  and  _242
REMARK   99  A    between atoms: _242  and  _243
REMARK  100  A    between atoms: _248  and  _249
REMARK  101  A    between atoms: _251  and  _253
REMARK  102  A    between atoms: _253  and  _254
REMARK  103  A    between atoms: _253  and  _256
REMARK  104  A    between atoms: _256  and  _257
REMARK  105  A    between atoms: _257  and  _258
REMARK  106  A    between atoms: _258  and  _259
REMARK  107  A    between atoms: _268  and  _270
REMARK  108  A    between atoms: _270  and  _271
REMARK  109  A    between atoms: _270  and  _273
REMARK  110  A    between atoms: _273  and  _274
REMARK  111  A    between atoms: _279  and  _280
REMARK  112  A    between atoms: _282  and  _284
REMARK  113  A    between atoms: _284  and  _285
REMARK  114  A    between atoms: _284  and  _287
REMARK  115  A    between atoms: _287  and  _288
REMARK  116  A    between atoms: _291  and  _293
REMARK  117  A    between atoms: _293  and  _294
REMARK  118  A    between atoms: _293  and  _296
REMARK  119  A    between atoms: _296  and  _297
REMARK  120  A    between atoms: _307  and  _309
REMARK  121  A    between atoms: _309  and  _310
REMARK  122  A    between atoms: _309  and  _312
REMARK  123  A    between atoms: _312  and  _313
REMARK  124  A    between atoms: _316  and  _318
REMARK  125  A    between atoms: _318  and  _319
REMARK  126  A    between atoms: _318  and  _321
REMARK  127  A    between atoms: _321  and  _322
REMARK  128  A    between atoms: _322  and  _323
REMARK  129  A    between atoms: _326  and  _328
REMARK  130  A    between atoms: _328  and  _329
REMARK  131  A    between atoms: _328  and  _331
REMARK  132  A    between atoms: _331  and  _332
REMARK  133  A    between atoms: _334  and  _336
REMARK  134  A    between atoms: _336  and  _337
REMARK  135  A    between atoms: _336  and  _339
REMARK  136  A    between atoms: _339  and  _340
REMARK  137  A    between atoms: _343  and  _345
REMARK  138  A    between atoms: _345  and  _346
REMARK  139  A    between atoms: _348  and  _350
REMARK  140  A    between atoms: _350  and  _351
REMARK  141  A    between atoms: _350  and  _353
REMARK  142  A    between atoms: _353  and  _354
REMARK  143  A    between atoms: _364  and  _366
REMARK  144  A    between atoms: _366  and  _367
REMARK  145  A    between atoms: _366  and  _369
REMARK  146  A    between atoms: _369  and  _370
REMARK  147  A    between atoms: _370  and  _371
REMARK  148  A    between atoms: _371  and  _372
REMARK  149  A    between atoms: _381  and  _383
REMARK  150  A    between atoms: _383  and  _384
REMARK  151  A    between atoms: _383  and  _386
REMARK  152  A    between atoms: _386  and  _387
REMARK  153  A    between atoms: _387  and  _388
REMARK  154  A    between atoms: _388  and  _389
REMARK  155  A    between atoms: _389  and  _390
REMARK  156  A    between atoms: _394  and  _396
REMARK  157  A    between atoms: _396  and  _397
REMARK  158  A    between atoms: _396  and  _399
REMARK  159  A    between atoms: _399  and  _400
REMARK  160  A    between atoms: _400  and  _401
REMARK  161  A    between atoms: _406  and  _408
REMARK  162  A    between atoms: _408  and  _409
REMARK  163  A    between atoms: _408  and  _411
REMARK  164  A    between atoms: _411  and  _412
REMARK                            x       y       z     vdW  Elec       q    Type
REMARK                         _______ _______ _______ _____ _____    ______ ____
ROOT
ATOM      1  O   HOH     1      17.885   6.272  17.090  0.00  0.00    +0.000 OA
ENDROOT
TORSDOF 0
REMARK  Name = ../refined-set-2016/3uj9/3uj9_pocket.pdb
REMARK  164 active torsions:
REMARK  status: ('A' for Active; 'I' for Inactive)
REMARK    1  A    between atoms: _1  and  _3
REMARK    2  A    between atoms: _3  and  _4
REMARK    3  A    between atoms: _3  and  _6
REMARK    4  A    between atoms: _6  and  _7
REMARK    5  A    between atoms: _7  and  _8
REMARK    6  A    between atoms: _13  and  _15
REMARK    7  A    between atoms: _15  and  _16
REMARK    8  A    between atoms: _15  and  _18
REMARK    9  A    between atoms: _18  and  _19
REMARK   10  A    between atoms: _24  and  _25
REMARK   11  A    between atoms: _27  and  _29
REMARK   12  A    between atoms: _29  and  _30
REMARK   13  A    between atoms: _32  and  _34
REMARK   14  A    between atoms: _34  and  _35
REMARK   15  A    between atoms: _34  and  _37
REMARK   16  A    between atoms: _37  and  _38
REMARK   17  A    between atoms: _43  and  _44
REMARK   18  A    between atoms: _46  and  _48
REMARK   19  A    between atoms: _48  and  _49
REMARK   20  A    between atoms: _48  and  _51
REMARK   21  A    between atoms: _51  and  _52
REMARK   22  A    between atoms: _55  and  _57
REMARK   23  A    between atoms: _57  and  _58
REMARK   24  A    between atoms: _57  and  _60
REMARK   25  A    between atoms: _60  and  _61
REMARK   26  A    between atoms: _67  and  _69
REMARK   27  A    between atoms: _69  and  _70
REMARK   28  A    between atoms: _69  and  _72
REMARK   29  A    between atoms: _72  and  _73
REMARK   30  A    between atoms: _78  and  _79
REMARK   31  A    between atoms: _81  and  _83
REMARK   32  A    between atoms: _83  and  _84
REMARK   33  A    between atoms: _83  and  _86
REMARK   34  A    between atoms: _86  and  _87
REMARK   35  A    between atoms: _90  and  _92
REMARK   36  A    between atoms: _92  and  _93
REMARK   37  A    between atoms: _92  and  _95
REMARK   38  A    between atoms: _95  and  _96
REMARK   39  A    between atoms: _98  and  _100
REMARK   40  A    between atoms: _100  and  _101
REMARK   41  A    between atoms: _100  and  _103
REMARK   42  A    between atoms: _103  and  _104
REMARK   43  A    between atoms: _106  and  _108
REMARK   44  A    between atoms: _108  and  _109
REMARK   45  A    between atoms: _111  and  _113
REMARK   46  A    between atoms: _113  and  _114
REMARK   47  A    between atoms: _116  and  _118
REMARK   48  A    between atoms: _118  and  _119
REMARK   49  A    between atoms: _121  and  _123
REMARK   50  A    between atoms: _123  and  _124
REMARK   51  A    between atoms: _126  and  _128
REMARK   52  A    between atoms: _128  and  _129
REMARK   53  A    between atoms: _128  and  _131
REMARK   54  A    between atoms: _131  and  _132
REMARK   55  A    between atoms: _135  and  _137
REMARK   56  A    between atoms: _137  and  _138
REMARK   57  A    between atoms: _137  and  _140
REMARK   58  A    between atoms: _140  and  _141
REMARK   59  A    between atoms: _144  and  _146
REMARK   60  A    between atoms: _146  and  _147
REMARK   61  A    between atoms: _146  and  _149
REMARK   62  A    between atoms: _149  and  _150
REMARK   63  A    between atoms: _150  and  _151
REMARK   64  A    between atoms: _151  and  _152
REMARK   65  A    between atoms: _161  and  _163
REMARK   66  A    between atoms: _163  and  _164
REMARK   67  A    between atoms: _163  and  _166
REMARK   68  A    between atoms: _166  and  _167
REMARK   69  A    between atoms: _170  and  _172
REMARK   70  A    between atoms: _172  and  _173
REMARK   71  A    between atoms: _176  and  _178
REMARK   72  A    between atoms: _178  and  _179
REMARK   73  A    between atoms: _178  and  _181
REMARK   74  A    between atoms: _181  and  _182
REMARK   75  A    between atoms: _185  and  _187
REMARK   76  A    between atoms: _187  and  _188
REMARK   77  A    between atoms: _187  and  _190
REMARK   78  A    between atoms: _190  and  _191
REMARK   79  A    between atoms: _194  and  _196
REMARK   80  A    between atoms: _196  and  _197
REMARK   81  A    between atoms: _196  and  _199
REMARK   82  A    between atoms: _199  and  _200
REMARK   83  A    between atoms: _205  and  _207
REMARK   84  A    between atoms: _207  and  _208
REMARK   85  A    between atoms: _207  and  _210
REMARK   86  A    between atoms: _210  and  _211
REMARK   87  A    between atoms: _214  and  _216
REMARK   88  A    between atoms: _216  and  _217
REMARK   89  A    between atoms: _216  and  _219
REMARK   90  A    between atoms: _219  and  _220
REMARK   91  A    between atoms: _223  and  _225
REMARK   92  A    between atoms: _225  and  _226
REMARK   93  A    between atoms: _225  and  _228
REMARK   94  A    between atoms: _228  and  _229
REMARK   95  A    between atoms: _234  and  _235
REMARK   96  A    between atoms: _237  and  _239
REMARK   97  A    between atoms: _239  and  _240
REMARK   98  A    between atoms: _239  and  _242
REMARK   99  A    between atoms: _242  and  _243
REMARK  100  A    between atoms: _248  and  _249
REMARK  101  A    between atoms: _251  and  _253
REMARK  102  A    between atoms: _253  and  _254
REMARK  103  A    between atoms: _253  and  _256
REMARK  104  A    between atoms: _256  and  _257
REMARK  105  A    between atoms: _257  and  _258
REMARK  106  A    between atoms: _258  and  _259
REMARK  107  A    between atoms: _268  and  _270
REMARK  108  A    between atoms: _270  and  _271
REMARK  109  A    between atoms: _270  and  _273
REMARK  110  A    between atoms: _273  and  _274
REMARK  111  A    between atoms: _279  and  _280
REMARK  112  A    between atoms: _282  and  _284
REMARK  113  A    between atoms: _284  and  _285
REMARK  114  A    between atoms: _284  and  _287
REMARK  115  A    between atoms: _287  and  _288
REMARK  116  A    between atoms: _291  and  _293
REMARK  117  A    between atoms: _293  and  _294
REMARK  118  A    between atoms: _293  and  _296
REMARK  119  A    between atoms: _296  and  _297
REMARK  120  A    between atoms: _307  and  _309
REMARK  121  A    between atoms: _309  and  _310
REMARK  122  A    between atoms: _309  and  _312
REMARK  123  A    between atoms: _312  and  _313
REMARK  124  A    between atoms: _316  and  _318
REMARK  125  A    between atoms: _318  and  _319
REMARK  126  A    between atoms: _318  and  _321
REMARK  127  A    between atoms: _321  and  _322
REMARK  128  A    between atoms: _322  and  _323
REMARK  129  A    between atoms: _326  and  _328
REMARK  130  A    between atoms: _328  and  _329
REMARK  131  A    between atoms: _328  and  _331
REMARK  132  A    between atoms: _331  and  _332
REMARK  133  A    between atoms: _334  and  _336
REMARK  134  A    between atoms: _336  and  _337
REMARK  135  A    between atoms: _336  and  _339
REMARK  136  A    between atoms: _339  and  _340
REMARK  137  A    between atoms: _343  and  _345
REMARK  138  A    between atoms: _345  and  _346
REMARK  139  A    between atoms: _348  and  _350
REMARK  140  A    between atoms: _350  and  _351
REMARK  141  A    between atoms: _350  and  _353
REMARK  142  A    between atoms: _353  and  _354
REMARK  143  A    between atoms: _364  and  _366
REMARK  144  A    between atoms: _366  and  _367
REMARK  145  A    between atoms: _366  and  _369
REMARK  146  A    between atoms: _369  and  _370
REMARK  147  A    between atoms: _370  and  _371
REMARK  148  A    between atoms: _371  and  _372
REMARK  149  A    between atoms: _381  and  _383
REMARK  150  A    between atoms: _383  and  _384
REMARK  151  A    between atoms: _383  and  _386
REMARK  152  A    between atoms: _386  and  _387
REMARK  153  A    between atoms: _387  and  _388
REMARK  154  A    between atoms: _388  and  _389
REMARK  155  A    between atoms: _389  and  _390
REMARK  156  A    between atoms: _394  and  _396
REMARK  157  A    between atoms: _396  and  _397
REMARK  158  A    between atoms: _396  and  _399
REMARK  159  A    between atoms: _399  and  _400
REMARK  160  A    between atoms: _400  and  _401
REMARK  161  A    between atoms: _406  and  _408
REMARK  162  A    between atoms: _408  and  _409
REMARK  163  A    between atoms: _408  and  _411
REMARK  164  A    between atoms: _411  and  _412
REMARK                            x       y       z     vdW  Elec       q    Type
REMARK                         _______ _______ _______ _____ _____    ______ ____
ROOT
ATOM      1  O   HOH     1      20.901  19.746  15.136  0.00  0.00    +0.000 OA
ENDROOT
TORSDOF 0
REMARK  Name = ../refined-set-2016/3uj9/3uj9_pocket.pdb
REMARK  164 active torsions:
REMARK  status: ('A' for Active; 'I' for Inactive)
REMARK    1  A    between atoms: _1  and  _3
REMARK    2  A    between atoms: _3  and  _4
REMARK    3  A    between atoms: _3  and  _6
REMARK    4  A    between atoms: _6  and  _7
REMARK    5  A    between atoms: _7  and  _8
REMARK    6  A    between atoms: _13  and  _15
REMARK    7  A    between atoms: _15  and  _16
REMARK    8  A    between atoms: _15  and  _18
REMARK    9  A    between atoms: _18  and  _19
REMARK   10  A    between atoms: _24  and  _25
REMARK   11  A    between atoms: _27  and  _29
REMARK   12  A    between atoms: _29  and  _30
REMARK   13  A    between atoms: _32  and  _34
REMARK   14  A    between atoms: _34  and  _35
REMARK   15  A    between atoms: _34  and  _37
REMARK   16  A    between atoms: _37  and  _38
REMARK   17  A    between atoms: _43  and  _44
REMARK   18  A    between atoms: _46  and  _48
REMARK   19  A    between atoms: _48  and  _49
REMARK   20  A    between atoms: _48  and  _51
REMARK   21  A    between atoms: _51  and  _52
REMARK   22  A    between atoms: _55  and  _57
REMARK   23  A    between atoms: _57  and  _58
REMARK   24  A    between atoms: _57  and  _60
REMARK   25  A    between atoms: _60  and  _61
REMARK   26  A    between atoms: _67  and  _69
REMARK   27  A    between atoms: _69  and  _70
REMARK   28  A    between atoms: _69  and  _72
REMARK   29  A    between atoms: _72  and  _73
REMARK   30  A    between atoms: _78  and  _79
REMARK   31  A    between atoms: _81  and  _83
REMARK   32  A    between atoms: _83  and  _84
REMARK   33  A    between atoms: _83  and  _86
REMARK   34  A    between atoms: _86  and  _87
REMARK   35  A    between atoms: _90  and  _92
REMARK   36  A    between atoms: _92  and  _93
REMARK   37  A    between atoms: _92  and  _95
REMARK   38  A    between atoms: _95  and  _96
REMARK   39  A    between atoms: _98  and  _100
REMARK   40  A    between atoms: _100  and  _101
REMARK   41  A    between atoms: _100  and  _103
REMARK   42  A    between atoms: _103  and  _104
REMARK   43  A    between atoms: _106  and  _108
REMARK   44  A    between atoms: _108  and  _109
REMARK   45  A    between atoms: _111  and  _113
REMARK   46  A    between atoms: _113  and  _114
REMARK   47  A    between atoms: _116  and  _118
REMARK   48  A    between atoms: _118  and  _119
REMARK   49  A    between atoms: _121  and  _123
REMARK   50  A    between atoms: _123  and  _124
REMARK   51  A    between atoms: _126  and  _128
REMARK   52  A    between atoms: _128  and  _129
REMARK   53  A    between atoms: _128  and  _131
REMARK   54  A    between atoms: _131  and  _132
REMARK   55  A    between atoms: _135  and  _137
REMARK   56  A    between atoms: _137  and  _138
REMARK   57  A    between atoms: _137  and  _140
REMARK   58  A    between atoms: _140  and  _141
REMARK   59  A    between atoms: _144  and  _146
REMARK   60  A    between atoms: _146  and  _147
REMARK   61  A    between atoms: _146  and  _149
REMARK   62  A    between atoms: _149  and  _150
REMARK   63  A    between atoms: _150  and  _151
REMARK   64  A    between atoms: _151  and  _152
REMARK   65  A    between atoms: _161  and  _163
REMARK   66  A    between atoms: _163  and  _164
REMARK   67  A    between atoms: _163  and  _166
REMARK   68  A    between atoms: _166  and  _167
REMARK   69  A    between atoms: _170  and  _172
REMARK   70  A    between atoms: _172  and  _173
REMARK   71  A    between atoms: _176  and  _178
REMARK   72  A    between atoms: _178  and  _179
REMARK   73  A    between atoms: _178  and  _181
REMARK   74  A    between atoms: _181  and  _182
REMARK   75  A    between atoms: _185  and  _187
REMARK   76  A    between atoms: _187  and  _188
REMARK   77  A    between atoms: _187  and  _190
REMARK   78  A    between atoms: _190  and  _191
REMARK   79  A    between atoms: _194  and  _196
REMARK   80  A    between atoms: _196  and  _197
REMARK   81  A    between atoms: _196  and  _199
REMARK   82  A    between atoms: _199  and  _200
REMARK   83  A    between atoms: _205  and  _207
REMARK   84  A    between atoms: _207  and  _208
REMARK   85  A    between atoms: _207  and  _210
REMARK   86  A    between atoms: _210  and  _211
REMARK   87  A    between atoms: _214  and  _216
REMARK   88  A    between atoms: _216  and  _217
REMARK   89  A    between atoms: _216  and  _219
REMARK   90  A    between atoms: _219  and  _220
REMARK   91  A    between atoms: _223  and  _225
REMARK   92  A    between atoms: _225  and  _226
REMARK   93  A    between atoms: _225  and  _228
REMARK   94  A    between atoms: _228  and  _229
REMARK   95  A    between atoms: _234  and  _235
REMARK   96  A    between atoms: _237  and  _239
REMARK   97  A    between atoms: _239  and  _240
REMARK   98  A    between atoms: _239  and  _242
REMARK   99  A    between atoms: _242  and  _243
REMARK  100  A    between atoms: _248  and  _249
REMARK  101  A    between atoms: _251  and  _253
REMARK  102  A    between atoms: _253  and  _254
REMARK  103  A    between atoms: _253  and  _256
REMARK  104  A    between atoms: _256  and  _257
REMARK  105  A    between atoms: _257  and  _258
REMARK  106  A    between atoms: _258  and  _259
REMARK  107  A    between atoms: _268  and  _270
REMARK  108  A    between atoms: _270  and  _271
REMARK  109  A    between atoms: _270  and  _273
REMARK  110  A    between atoms: _273  and  _274
REMARK  111  A    between atoms: _279  and  _280
REMARK  112  A    between atoms: _282  and  _284
REMARK  113  A    between atoms: _284  and  _285
REMARK  114  A    between atoms: _284  and  _287
REMARK  115  A    between atoms: _287  and  _288
REMARK  116  A    between atoms: _291  and  _293
REMARK  117  A    between atoms: _293  and  _294
REMARK  118  A    between atoms: _293  and  _296
REMARK  119  A    between atoms: _296  and  _297
REMARK  120  A    between atoms: _307  and  _309
REMARK  121  A    between atoms: _309  and  _310
REMARK  122  A    between atoms: _309  and  _312
REMARK  123  A    between atoms: _312  and  _313
REMARK  124  A    between atoms: _316  and  _318
REMARK  125  A    between atoms: _318  and  _319
REMARK  126  A    between atoms: _318  and  _321
REMARK  127  A    between atoms: _321  and  _322
REMARK  128  A    between atoms: _322  and  _323
REMARK  129  A    between atoms: _326  and  _328
REMARK  130  A    between atoms: _328  and  _329
REMARK  131  A    between atoms: _328  and  _331
REMARK  132  A    between atoms: _331  and  _332
REMARK  133  A    between atoms: _334  and  _336
REMARK  134  A    between atoms: _336  and  _337
REMARK  135  A    between atoms: _336  and  _339
REMARK  136  A    between atoms: _339  and  _340
REMARK  137  A    between atoms: _343  and  _345
REMARK  138  A    between atoms: _345  and  _346
REMARK  139  A    between atoms: _348  and  _350
REMARK  140  A    between atoms: _350  and  _351
REMARK  141  A    between atoms: _350  and  _353
REMARK  142  A    between atoms: _353  and  _354
REMARK  143  A    between atoms: _364  and  _366
REMARK  144  A    between atoms: _366  and  _367
REMARK  145  A    between atoms: _366  and  _369
REMARK  146  A    between atoms: _369  and  _370
REMARK  147  A    between atoms: _370  and  _371
REMARK  148  A    between atoms: _371  and  _372
REMARK  149  A    between atoms: _381  and  _383
REMARK  150  A    between atoms: _383  and  _384
REMARK  151  A    between atoms: _383  and  _386
REMARK  152  A    between atoms: _386  and  _387
REMARK  153  A    between atoms: _387  and  _388
REMARK  154  A    between atoms: _388  and  _389
REMARK  155  A    between atoms: _389  and  _390
REMARK  156  A    between atoms: _394  and  _396
REMARK  157  A    between atoms: _396  and  _397
REMARK  158  A    between atoms: _396  and  _399
REMARK  159  A    between atoms: _399  and  _400
REMARK  160  A    between atoms: _400  and  _401
REMARK  161  A    between atoms: _406  and  _408
REMARK  162  A    between atoms: _408  and  _409
REMARK  163  A    between atoms: _408  and  _411
REMARK  164  A    between atoms: _411  and  _412
REMARK                            x       y       z     vdW  Elec       q    Type
REMARK                         _______ _______ _______ _____ _____    ______ ____
ROOT
ATOM      1  O   HOH     1      19.861  18.331  17.210  0.00  0.00    +0.000 OA
ENDROOT
TORSDOF 0
REMARK  Name = ../refined-set-2016/3uj9/3uj9_pocket.pdb
REMARK  164 active torsions:
REMARK  status: ('A' for Active; 'I' for Inactive)
REMARK    1  A    between atoms: _1  and  _3
REMARK    2  A    between atoms: _3  and  _4
REMARK    3  A    between atoms: _3  and  _6
REMARK    4  A    between atoms: _6  and  _7
REMARK    5  A    between atoms: _7  and  _8
REMARK    6  A    between atoms: _13  and  _15
REMARK    7  A    between atoms: _15  and  _16
REMARK    8  A    between atoms: _15  and  _18
REMARK    9  A    between atoms: _18  and  _19
REMARK   10  A    between atoms: _24  and  _25
REMARK   11  A    between atoms: _27  and  _29
REMARK   12  A    between atoms: _29  and  _30
REMARK   13  A    between atoms: _32  and  _34
REMARK   14  A    between atoms: _34  and  _35
REMARK   15  A    between atoms: _34  and  _37
REMARK   16  A    between atoms: _37  and  _38
REMARK   17  A    between atoms: _43  and  _44
REMARK   18  A    between atoms: _46  and  _48
REMARK   19  A    between atoms: _48  and  _49
REMARK   20  A    between atoms: _48  and  _51
REMARK   21  A    between atoms: _51  and  _52
REMARK   22  A    between atoms: _55  and  _57
REMARK   23  A    between atoms: _57  and  _58
REMARK   24  A    between atoms: _57  and  _60
REMARK   25  A    between atoms: _60  and  _61
REMARK   26  A    between atoms: _67  and  _69
REMARK   27  A    between atoms: _69  and  _70
REMARK   28  A    between atoms: _69  and  _72
REMARK   29  A    between atoms: _72  and  _73
REMARK   30  A    between atoms: _78  and  _79
REMARK   31  A    between atoms: _81  and  _83
REMARK   32  A    between atoms: _83  and  _84
REMARK   33  A    between atoms: _83  and  _86
REMARK   34  A    between atoms: _86  and  _87
REMARK   35  A    between atoms: _90  and  _92
REMARK   36  A    between atoms: _92  and  _93
REMARK   37  A    between atoms: _92  and  _95
REMARK   38  A    between atoms: _95  and  _96
REMARK   39  A    between atoms: _98  and  _100
REMARK   40  A    between atoms: _100  and  _101
REMARK   41  A    between atoms: _100  and  _103
REMARK   42  A    between atoms: _103  and  _104
REMARK   43  A    between atoms: _106  and  _108
REMARK   44  A    between atoms: _108  and  _109
REMARK   45  A    between atoms: _111  and  _113
REMARK   46  A    between atoms: _113  and  _114
REMARK   47  A    between atoms: _116  and  _118
REMARK   48  A    between atoms: _118  and  _119
REMARK   49  A    between atoms: _121  and  _123
REMARK   50  A    between atoms: _123  and  _124
REMARK   51  A    between atoms: _126  and  _128
REMARK   52  A    between atoms: _128  and  _129
REMARK   53  A    between atoms: _128  and  _131
REMARK   54  A    between atoms: _131  and  _132
REMARK   55  A    between atoms: _135  and  _137
REMARK   56  A    between atoms: _137  and  _138
REMARK   57  A    between atoms: _137  and  _140
REMARK   58  A    between atoms: _140  and  _141
REMARK   59  A    between atoms: _144  and  _146
REMARK   60  A    between atoms: _146  and  _147
REMARK   61  A    between atoms: _146  and  _149
REMARK   62  A    between atoms: _149  and  _150
REMARK   63  A    between atoms: _150  and  _151
REMARK   64  A    between atoms: _151  and  _152
REMARK   65  A    between atoms: _161  and  _163
REMARK   66  A    between atoms: _163  and  _164
REMARK   67  A    between atoms: _163  and  _166
REMARK   68  A    between atoms: _166  and  _167
REMARK   69  A    between atoms: _170  and  _172
REMARK   70  A    between atoms: _172  and  _173
REMARK   71  A    between atoms: _176  and  _178
REMARK   72  A    between atoms: _178  and  _179
REMARK   73  A    between atoms: _178  and  _181
REMARK   74  A    between atoms: _181  and  _182
REMARK   75  A    between atoms: _185  and  _187
REMARK   76  A    between atoms: _187  and  _188
REMARK   77  A    between atoms: _187  and  _190
REMARK   78  A    between atoms: _190  and  _191
REMARK   79  A    between atoms: _194  and  _196
REMARK   80  A    between atoms: _196  and  _197
REMARK   81  A    between atoms: _196  and  _199
REMARK   82  A    between atoms: _199  and  _200
REMARK   83  A    between atoms: _205  and  _207
REMARK   84  A    between atoms: _207  and  _208
REMARK   85  A    between atoms: _207  and  _210
REMARK   86  A    between atoms: _210  and  _211
REMARK   87  A    between atoms: _214  and  _216
REMARK   88  A    between atoms: _216  and  _217
REMARK   89  A    between atoms: _216  and  _219
REMARK   90  A    between atoms: _219  and  _220
REMARK   91  A    between atoms: _223  and  _225
REMARK   92  A    between atoms: _225  and  _226
REMARK   93  A    between atoms: _225  and  _228
REMARK   94  A    between atoms: _228  and  _229
REMARK   95  A    between atoms: _234  and  _235
REMARK   96  A    between atoms: _237  and  _239
REMARK   97  A    between atoms: _239  and  _240
REMARK   98  A    between atoms: _239  and  _242
REMARK   99  A    between atoms: _242  and  _243
REMARK  100  A    between atoms: _248  and  _249
REMARK  101  A    between atoms: _251  and  _253
REMARK  102  A    between atoms: _253  and  _254
REMARK  103  A    between atoms: _253  and  _256
REMARK  104  A    between atoms: _256  and  _257
REMARK  105  A    between atoms: _257  and  _258
REMARK  106  A    between atoms: _258  and  _259
REMARK  107  A    between atoms: _268  and  _270
REMARK  108  A    between atoms: _270  and  _271
REMARK  109  A    between atoms: _270  and  _273
REMARK  110  A    between atoms: _273  and  _274
REMARK  111  A    between atoms: _279  and  _280
REMARK  112  A    between atoms: _282  and  _284
REMARK  113  A    between atoms: _284  and  _285
REMARK  114  A    between atoms: _284  and  _287
REMARK  115  A    between atoms: _287  and  _288
REMARK  116  A    between atoms: _291  and  _293
REMARK  117  A    between atoms: _293  and  _294
REMARK  118  A    between atoms: _293  and  _296
REMARK  119  A    between atoms: _296  and  _297
REMARK  120  A    between atoms: _307  and  _309
REMARK  121  A    between atoms: _309  and  _310
REMARK  122  A    between atoms: _309  and  _312
REMARK  123  A    between atoms: _312  and  _313
REMARK  124  A    between atoms: _316  and  _318
REMARK  125  A    between atoms: _318  and  _319
REMARK  126  A    between atoms: _318  and  _321
REMARK  127  A    between atoms: _321  and  _322
REMARK  128  A    between atoms: _322  and  _323
REMARK  129  A    between atoms: _326  and  _328
REMARK  130  A    between atoms: _328  and  _329
REMARK  131  A    between atoms: _328  and  _331
REMARK  132  A    between atoms: _331  and  _332
REMARK  133  A    between atoms: _334  and  _336
REMARK  134  A    between atoms: _336  and  _337
REMARK  135  A    between atoms: _336  and  _339
REMARK  136  A    between atoms: _339  and  _340
REMARK  137  A    between atoms: _343  and  _345
REMARK  138  A    between atoms: _345  and  _346
REMARK  139  A    between atoms: _348  and  _350
REMARK  140  A    between atoms: _350  and  _351
REMARK  141  A    between atoms: _350  and  _353
REMARK  142  A    between atoms: _353  and  _354
REMARK  143  A    between atoms: _364  and  _366
REMARK  144  A    between atoms: _366  and  _367
REMARK  145  A    between atoms: _366  and  _369
REMARK  146  A    between atoms: _369  and  _370
REMARK  147  A    between atoms: _370  and  _371
REMARK  148  A    between atoms: _371  and  _372
REMARK  149  A    between atoms: _381  and  _383
REMARK  150  A    between atoms: _383  and  _384
REMARK  151  A    between atoms: _383  and  _386
REMARK  152  A    between atoms: _386  and  _387
REMARK  153  A    between atoms: _387  and  _388
REMARK  154  A    between atoms: _388  and  _389
REMARK  155  A    between atoms: _389  and  _390
REMARK  156  A    between atoms: _394  and  _396
REMARK  157  A    between atoms: _396  and  _397
REMARK  158  A    between atoms: _396  and  _399
REMARK  159  A    between atoms: _399  and  _400
REMARK  160  A    between atoms: _400  and  _401
REMARK  161  A    between atoms: _406  and  _408
REMARK  162  A    between atoms: _408  and  _409
REMARK  163  A    between atoms: _408  and  _411
REMARK  164  A    between atoms: _411  and  _412
REMARK                            x       y       z     vdW  Elec       q    Type
REMARK                         _______ _______ _______ _____ _____    ______ ____
ROOT
ATOM      1  O   HOH     1      21.707   4.783  20.243  0.00  0.00    +0.000 OA
ENDROOT
TORSDOF 0
REMARK  Name = ../refined-set-2016/3uj9/3uj9_pocket.pdb
REMARK  164 active torsions:
REMARK  status: ('A' for Active; 'I' for Inactive)
REMARK    1  A    between atoms: _1  and  _3
REMARK    2  A    between atoms: _3  and  _4
REMARK    3  A    between atoms: _3  and  _6
REMARK    4  A    between atoms: _6  and  _7
REMARK    5  A    between atoms: _7  and  _8
REMARK    6  A    between atoms: _13  and  _15
REMARK    7  A    between atoms: _15  and  _16
REMARK    8  A    between atoms: _15  and  _18
REMARK    9  A    between atoms: _18  and  _19
REMARK   10  A    between atoms: _24  and  _25
REMARK   11  A    between atoms: _27  and  _29
REMARK   12  A    between atoms: _29  and  _30
REMARK   13  A    between atoms: _32  and  _34
REMARK   14  A    between atoms: _34  and  _35
REMARK   15  A    between atoms: _34  and  _37
REMARK   16  A    between atoms: _37  and  _38
REMARK   17  A    between atoms: _43  and  _44
REMARK   18  A    between atoms: _46  and  _48
REMARK   19  A    between atoms: _48  and  _49
REMARK   20  A    between atoms: _48  and  _51
REMARK   21  A    between atoms: _51  and  _52
REMARK   22  A    between atoms: _55  and  _57
REMARK   23  A    between atoms: _57  and  _58
REMARK   24  A    between atoms: _57  and  _60
REMARK   25  A    between atoms: _60  and  _61
REMARK   26  A    between atoms: _67  and  _69
REMARK   27  A    between atoms: _69  and  _70
REMARK   28  A    between atoms: _69  and  _72
REMARK   29  A    between atoms: _72  and  _73
REMARK   30  A    between atoms: _78  and  _79
REMARK   31  A    between atoms: _81  and  _83
REMARK   32  A    between atoms: _83  and  _84
REMARK   33  A    between atoms: _83  and  _86
REMARK   34  A    between atoms: _86  and  _87
REMARK   35  A    between atoms: _90  and  _92
REMARK   36  A    between atoms: _92  and  _93
REMARK   37  A    between atoms: _92  and  _95
REMARK   38  A    between atoms: _95  and  _96
REMARK   39  A    between atoms: _98  and  _100
REMARK   40  A    between atoms: _100  and  _101
REMARK   41  A    between atoms: _100  and  _103
REMARK   42  A    between atoms: _103  and  _104
REMARK   43  A    between atoms: _106  and  _108
REMARK   44  A    between atoms: _108  and  _109
REMARK   45  A    between atoms: _111  and  _113
REMARK   46  A    between atoms: _113  and  _114
REMARK   47  A    between atoms: _116  and  _118
REMARK   48  A    between atoms: _118  and  _119
REMARK   49  A    between atoms: _121  and  _123
REMARK   50  A    between atoms: _123  and  _124
REMARK   51  A    between atoms: _126  and  _128
REMARK   52  A    between atoms: _128  and  _129
REMARK   53  A    between atoms: _128  and  _131
REMARK   54  A    between atoms: _131  and  _132
REMARK   55  A    between atoms: _135  and  _137
REMARK   56  A    between atoms: _137  and  _138
REMARK   57  A    between atoms: _137  and  _140
REMARK   58  A    between atoms: _140  and  _141
REMARK   59  A    between atoms: _144  and  _146
REMARK   60  A    between atoms: _146  and  _147
REMARK   61  A    between atoms: _146  and  _149
REMARK   62  A    between atoms: _149  and  _150
REMARK   63  A    between atoms: _150  and  _151
REMARK   64  A    between atoms: _151  and  _152
REMARK   65  A    between atoms: _161  and  _163
REMARK   66  A    between atoms: _163  and  _164
REMARK   67  A    between atoms: _163  and  _166
REMARK   68  A    between atoms: _166  and  _167
REMARK   69  A    between atoms: _170  and  _172
REMARK   70  A    between atoms: _172  and  _173
REMARK   71  A    between atoms: _176  and  _178
REMARK   72  A    between atoms: _178  and  _179
REMARK   73  A    between atoms: _178  and  _181
REMARK   74  A    between atoms: _181  and  _182
REMARK   75  A    between atoms: _185  and  _187
REMARK   76  A    between atoms: _187  and  _188
REMARK   77  A    between atoms: _187  and  _190
REMARK   78  A    between atoms: _190  and  _191
REMARK   79  A    between atoms: _194  and  _196
REMARK   80  A    between atoms: _196  and  _197
REMARK   81  A    between atoms: _196  and  _199
REMARK   82  A    between atoms: _199  and  _200
REMARK   83  A    between atoms: _205  and  _207
REMARK   84  A    between atoms: _207  and  _208
REMARK   85  A    between atoms: _207  and  _210
REMARK   86  A    between atoms: _210  and  _211
REMARK   87  A    between atoms: _214  and  _216
REMARK   88  A    between atoms: _216  and  _217
REMARK   89  A    between atoms: _216  and  _219
REMARK   90  A    between atoms: _219  and  _220
REMARK   91  A    between atoms: _223  and  _225
REMARK   92  A    between atoms: _225  and  _226
REMARK   93  A    between atoms: _225  and  _228
REMARK   94  A    between atoms: _228  and  _229
REMARK   95  A    between atoms: _234  and  _235
REMARK   96  A    between atoms: _237  and  _239
REMARK   97  A    between atoms: _239  and  _240
REMARK   98  A    between atoms: _239  and  _242
REMARK   99  A    between atoms: _242  and  _243
REMARK  100  A    between atoms: _248  and  _249
REMARK  101  A    between atoms: _251  and  _253
REMARK  102  A    between atoms: _253  and  _254
REMARK  103  A    between atoms: _253  and  _256
REMARK  104  A    between atoms: _256  and  _257
REMARK  105  A    between atoms: _257  and  _258
REMARK  106  A    between atoms: _258  and  _259
REMARK  107  A    between atoms: _268  and  _270
REMARK  108  A    between atoms: _270  and  _271
REMARK  109  A    between atoms: _270  and  _273
REMARK  110  A    between atoms: _273  and  _274
REMARK  111  A    between atoms: _279  and  _280
REMARK  112  A    between atoms: _282  and  _284
REMARK  113  A    between atoms: _284  and  _285
REMARK  114  A    between atoms: _284  and  _287
REMARK  115  A    between atoms: _287  and  _288
REMARK  116  A    between atoms: _291  and  _293
REMARK  117  A    between atoms: _293  and  _294
REMARK  118  A    between atoms: _293  and  _296
REMARK  119  A    between atoms: _296  and  _297
REMARK  120  A    between atoms: _307  and  _309
REMARK  121  A    between atoms: _309  and  _310
REMARK  122  A    between atoms: _309  and  _312
REMARK  123  A    between atoms: _312  and  _313
REMARK  124  A    between atoms: _316  and  _318
REMARK  125  A    between atoms: _318  and  _319
REMARK  126  A    between atoms: _318  and  _321
REMARK  127  A    between atoms: _321  and  _322
REMARK  128  A    between atoms: _322  and  _323
REMARK  129  A    between atoms: _326  and  _328
REMARK  130  A    between atoms: _328  and  _329
REMARK  131  A    between atoms: _328  and  _331
REMARK  132  A    between atoms: _331  and  _332
REMARK  133  A    between atoms: _334  and  _336
REMARK  134  A    between atoms: _336  and  _337
REMARK  135  A    between atoms: _336  and  _339
REMARK  136  A    between atoms: _339  and  _340
REMARK  137  A    between atoms: _343  and  _345
REMARK  138  A    between atoms: _345  and  _346
REMARK  139  A    between atoms: _348  and  _350
REMARK  140  A    between atoms: _350  and  _351
REMARK  141  A    between atoms: _350  and  _353
REMARK  142  A    between atoms: _353  and  _354
REMARK  143  A    between atoms: _364  and  _366
REMARK  144  A    between atoms: _366  and  _367
REMARK  145  A    between atoms: _366  and  _369
REMARK  146  A    between atoms: _369  and  _370
REMARK  147  A    between atoms: _370  and  _371
REMARK  148  A    between atoms: _371  and  _372
REMARK  149  A    between atoms: _381  and  _383
REMARK  150  A    between atoms: _383  and  _384
REMARK  151  A    between atoms: _383  and  _386
REMARK  152  A    between atoms: _386  and  _387
REMARK  153  A    between atoms: _387  and  _388
REMARK  154  A    between atoms: _388  and  _389
REMARK  155  A    between atoms: _389  and  _390
REMARK  156  A    between atoms: _394  and  _396
REMARK  157  A    between atoms: _396  and  _397
REMARK  158  A    between atoms: _396  and  _399
REMARK  159  A    between atoms: _399  and  _400
REMARK  160  A    between atoms: _400  and  _401
REMARK  161  A    between atoms: _406  and  _408
REMARK  162  A    between atoms: _408  and  _409
REMARK  163  A    between atoms: _408  and  _411
REMARK  164  A    between atoms: _411  and  _412
REMARK                            x       y       z     vdW  Elec       q    Type
REMARK                         _______ _______ _______ _____ _____    ______ ____
ROOT
ATOM      1  O   HOH     1      19.905   4.597  18.254  0.00  0.00    +0.000 OA
ENDROOT
TORSDOF 0
REMARK  Name = ../refined-set-2016/3uj9/3uj9_pocket.pdb
REMARK  164 active torsions:
REMARK  status: ('A' for Active; 'I' for Inactive)
REMARK    1  A    between atoms: _1  and  _3
REMARK    2  A    between atoms: _3  and  _4
REMARK    3  A    between atoms: _3  and  _6
REMARK    4  A    between atoms: _6  and  _7
REMARK    5  A    between atoms: _7  and  _8
REMARK    6  A    between atoms: _13  and  _15
REMARK    7  A    between atoms: _15  and  _16
REMARK    8  A    between atoms: _15  and  _18
REMARK    9  A    between atoms: _18  and  _19
REMARK   10  A    between atoms: _24  and  _25
REMARK   11  A    between atoms: _27  and  _29
REMARK   12  A    between atoms: _29  and  _30
REMARK   13  A    between atoms: _32  and  _34
REMARK   14  A    between atoms: _34  and  _35
REMARK   15  A    between atoms: _34  and  _37
REMARK   16  A    between atoms: _37  and  _38
REMARK   17  A    between atoms: _43  and  _44
REMARK   18  A    between atoms: _46  and  _48
REMARK   19  A    between atoms: _48  and  _49
REMARK   20  A    between atoms: _48  and  _51
REMARK   21  A    between atoms: _51  and  _52
REMARK   22  A    between atoms: _55  and  _57
REMARK   23  A    between atoms: _57  and  _58
REMARK   24  A    between atoms: _57  and  _60
REMARK   25  A    between atoms: _60  and  _61
REMARK   26  A    between atoms: _67  and  _69
REMARK   27  A    between atoms: _69  and  _70
REMARK   28  A    between atoms: _69  and  _72
REMARK   29  A    between atoms: _72  and  _73
REMARK   30  A    between atoms: _78  and  _79
REMARK   31  A    between atoms: _81  and  _83
REMARK   32  A    between atoms: _83  and  _84
REMARK   33  A    between atoms: _83  and  _86
REMARK   34  A    between atoms: _86  and  _87
REMARK   35  A    between atoms: _90  and  _92
REMARK   36  A    between atoms: _92  and  _93
REMARK   37  A    between atoms: _92  and  _95
REMARK   38  A    between atoms: _95  and  _96
REMARK   39  A    between atoms: _98  and  _100
REMARK   40  A    between atoms: _100  and  _101
REMARK   41  A    between atoms: _100  and  _103
REMARK   42  A    between atoms: _103  and  _104
REMARK   43  A    between atoms: _106  and  _108
REMARK   44  A    between atoms: _108  and  _109
REMARK   45  A    between atoms: _111  and  _113
REMARK   46  A    between atoms: _113  and  _114
REMARK   47  A    between atoms: _116  and  _118
REMARK   48  A    between atoms: _118  and  _119
REMARK   49  A    between atoms: _121  and  _123
REMARK   50  A    between atoms: _123  and  _124
REMARK   51  A    between atoms: _126  and  _128
REMARK   52  A    between atoms: _128  and  _129
REMARK   53  A    between atoms: _128  and  _131
REMARK   54  A    between atoms: _131  and  _132
REMARK   55  A    between atoms: _135  and  _137
REMARK   56  A    between atoms: _137  and  _138
REMARK   57  A    between atoms: _137  and  _140
REMARK   58  A    between atoms: _140  and  _141
REMARK   59  A    between atoms: _144  and  _146
REMARK   60  A    between atoms: _146  and  _147
REMARK   61  A    between atoms: _146  and  _149
REMARK   62  A    between atoms: _149  and  _150
REMARK   63  A    between atoms: _150  and  _151
REMARK   64  A    between atoms: _151  and  _152
REMARK   65  A    between atoms: _161  and  _163
REMARK   66  A    between atoms: _163  and  _164
REMARK   67  A    between atoms: _163  and  _166
REMARK   68  A    between atoms: _166  and  _167
REMARK   69  A    between atoms: _170  and  _172
REMARK   70  A    between atoms: _172  and  _173
REMARK   71  A    between atoms: _176  and  _178
REMARK   72  A    between atoms: _178  and  _179
REMARK   73  A    between atoms: _178  and  _181
REMARK   74  A    between atoms: _181  and  _182
REMARK   75  A    between atoms: _185  and  _187
REMARK   76  A    between atoms: _187  and  _188
REMARK   77  A    between atoms: _187  and  _190
REMARK   78  A    between atoms: _190  and  _191
REMARK   79  A    between atoms: _194  and  _196
REMARK   80  A    between atoms: _196  and  _197
REMARK   81  A    between atoms: _196  and  _199
REMARK   82  A    between atoms: _199  and  _200
REMARK   83  A    between atoms: _205  and  _207
REMARK   84  A    between atoms: _207  and  _208
REMARK   85  A    between atoms: _207  and  _210
REMARK   86  A    between atoms: _210  and  _211
REMARK   87  A    between atoms: _214  and  _216
REMARK   88  A    between atoms: _216  and  _217
REMARK   89  A    between atoms: _216  and  _219
REMARK   90  A    between atoms: _219  and  _220
REMARK   91  A    between atoms: _223  and  _225
REMARK   92  A    between atoms: _225  and  _226
REMARK   93  A    between atoms: _225  and  _228
REMARK   94  A    between atoms: _228  and  _229
REMARK   95  A    between atoms: _234  and  _235
REMARK   96  A    between atoms: _237  and  _239
REMARK   97  A    between atoms: _239  and  _240
REMARK   98  A    between atoms: _239  and  _242
REMARK   99  A    between atoms: _242  and  _243
REMARK  100  A    between atoms: _248  and  _249
REMARK  101  A    between atoms: _251  and  _253
REMARK  102  A    between atoms: _253  and  _254
REMARK  103  A    between atoms: _253  and  _256
REMARK  104  A    between atoms: _256  and  _257
REMARK  105  A    between atoms: _257  and  _258
REMARK  106  A    between atoms: _258  and  _259
REMARK  107  A    between atoms: _268  and  _270
REMARK  108  A    between atoms: _270  and  _271
REMARK  109  A    between atoms: _270  and  _273
REMARK  110  A    between atoms: _273  and  _274
REMARK  111  A    between atoms: _279  and  _280
REMARK  112  A    between atoms: _282  and  _284
REMARK  113  A    between atoms: _284  and  _285
REMARK  114  A    between atoms: _284  and  _287
REMARK  115  A    between atoms: _287  and  _288
REMARK  116  A    between atoms: _291  and  _293
REMARK  117  A    between atoms: _293  and  _294
REMARK  118  A    between atoms: _293  and  _296
REMARK  119  A    between atoms: _296  and  _297
REMARK  120  A    between atoms: _307  and  _309
REMARK  121  A    between atoms: _309  and  _310
REMARK  122  A    between atoms: _309  and  _312
REMARK  123  A    between atoms: _312  and  _313
REMARK  124  A    between atoms: _316  and  _318
REMARK  125  A    between atoms: _318  and  _319
REMARK  126  A    between atoms: _318  and  _321
REMARK  127  A    between atoms: _321  and  _322
REMARK  128  A    between atoms: _322  and  _323
REMARK  129  A    between atoms: _326  and  _328
REMARK  130  A    between atoms: _328  and  _329
REMARK  131  A    between atoms: _328  and  _331
REMARK  132  A    between atoms: _331  and  _332
REMARK  133  A    between atoms: _334  and  _336
REMARK  134  A    between atoms: _336  and  _337
REMARK  135  A    between atoms: _336  and  _339
REMARK  136  A    between atoms: _339  and  _340
REMARK  137  A    between atoms: _343  and  _345
REMARK  138  A    between atoms: _345  and  _346
REMARK  139  A    between atoms: _348  and  _350
REMARK  140  A    between atoms: _350  and  _351
REMARK  141  A    between atoms: _350  and  _353
REMARK  142  A    between atoms: _353  and  _354
REMARK  143  A    between atoms: _364  and  _366
REMARK  144  A    between atoms: _366  and  _367
REMARK  145  A    between atoms: _366  and  _369
REMARK  146  A    between atoms: _369  and  _370
REMARK  147  A    between atoms: _370  and  _371
REMARK  148  A    between atoms: _371  and  _372
REMARK  149  A    between atoms: _381  and  _383
REMARK  150  A    between atoms: _383  and  _384
REMARK  151  A    between atoms: _383  and  _386
REMARK  152  A    between atoms: _386  and  _387
REMARK  153  A    between atoms: _387  and  _388
REMARK  154  A    between atoms: _388  and  _389
REMARK  155  A    between atoms: _389  and  _390
REMARK  156  A    between atoms: _394  and  _396
REMARK  157  A    between atoms: _396  and  _397
REMARK  158  A    between atoms: _396  and  _399
REMARK  159  A    between atoms: _399  and  _400
REMARK  160  A    between atoms: _400  and  _401
REMARK  161  A    between atoms: _406  and  _408
REMARK  162  A    between atoms: _408  and  _409
REMARK  163  A    between atoms: _408  and  _411
REMARK  164  A    between atoms: _411  and  _412
REMARK                            x       y       z     vdW  Elec       q    Type
REMARK                         _______ _______ _______ _____ _____    ______ ____
ROOT
ATOM      1  O   HOH     1      11.761   4.829  22.700  0.00  0.00    +0.000 OA
ENDROOT
TORSDOF 0
REMARK  Name = ../refined-set-2016/3uj9/3uj9_pocket.pdb
REMARK  164 active torsions:
REMARK  status: ('A' for Active; 'I' for Inactive)
REMARK    1  A    between atoms: _1  and  _3
REMARK    2  A    between atoms: _3  and  _4
REMARK    3  A    between atoms: _3  and  _6
REMARK    4  A    between atoms: _6  and  _7
REMARK    5  A    between atoms: _7  and  _8
REMARK    6  A    between atoms: _13  and  _15
REMARK    7  A    between atoms: _15  and  _16
REMARK    8  A    between atoms: _15  and  _18
REMARK    9  A    between atoms: _18  and  _19
REMARK   10  A    between atoms: _24  and  _25
REMARK   11  A    between atoms: _27  and  _29
REMARK   12  A    between atoms: _29  and  _30
REMARK   13  A    between atoms: _32  and  _34
REMARK   14  A    between atoms: _34  and  _35
REMARK   15  A    between atoms: _34  and  _37
REMARK   16  A    between atoms: _37  and  _38
REMARK   17  A    between atoms: _43  and  _44
REMARK   18  A    between atoms: _46  and  _48
REMARK   19  A    between atoms: _48  and  _49
REMARK   20  A    between atoms: _48  and  _51
REMARK   21  A    between atoms: _51  and  _52
REMARK   22  A    between atoms: _55  and  _57
REMARK   23  A    between atoms: _57  and  _58
REMARK   24  A    between atoms: _57  and  _60
REMARK   25  A    between atoms: _60  and  _61
REMARK   26  A    between atoms: _67  and  _69
REMARK   27  A    between atoms: _69  and  _70
REMARK   28  A    between atoms: _69  and  _72
REMARK   29  A    between atoms: _72  and  _73
REMARK   30  A    between atoms: _78  and  _79
REMARK   31  A    between atoms: _81  and  _83
REMARK   32  A    between atoms: _83  and  _84
REMARK   33  A    between atoms: _83  and  _86
REMARK   34  A    between atoms: _86  and  _87
REMARK   35  A    between atoms: _90  and  _92
REMARK   36  A    between atoms: _92  and  _93
REMARK   37  A    between atoms: _92  and  _95
REMARK   38  A    between atoms: _95  and  _96
REMARK   39  A    between atoms: _98  and  _100
REMARK   40  A    between atoms: _100  and  _101
REMARK   41  A    between atoms: _100  and  _103
REMARK   42  A    between atoms: _103  and  _104
REMARK   43  A    between atoms: _106  and  _108
REMARK   44  A    between atoms: _108  and  _109
REMARK   45  A    between atoms: _111  and  _113
REMARK   46  A    between atoms: _113  and  _114
REMARK   47  A    between atoms: _116  and  _118
REMARK   48  A    between atoms: _118  and  _119
REMARK   49  A    between atoms: _121  and  _123
REMARK   50  A    between atoms: _123  and  _124
REMARK   51  A    between atoms: _126  and  _128
REMARK   52  A    between atoms: _128  and  _129
REMARK   53  A    between atoms: _128  and  _131
REMARK   54  A    between atoms: _131  and  _132
REMARK   55  A    between atoms: _135  and  _137
REMARK   56  A    between atoms: _137  and  _138
REMARK   57  A    between atoms: _137  and  _140
REMARK   58  A    between atoms: _140  and  _141
REMARK   59  A    between atoms: _144  and  _146
REMARK   60  A    between atoms: _146  and  _147
REMARK   61  A    between atoms: _146  and  _149
REMARK   62  A    between atoms: _149  and  _150
REMARK   63  A    between atoms: _150  and  _151
REMARK   64  A    between atoms: _151  and  _152
REMARK   65  A    between atoms: _161  and  _163
REMARK   66  A    between atoms: _163  and  _164
REMARK   67  A    between atoms: _163  and  _166
REMARK   68  A    between atoms: _166  and  _167
REMARK   69  A    between atoms: _170  and  _172
REMARK   70  A    between atoms: _172  and  _173
REMARK   71  A    between atoms: _176  and  _178
REMARK   72  A    between atoms: _178  and  _179
REMARK   73  A    between atoms: _178  and  _181
REMARK   74  A    between atoms: _181  and  _182
REMARK   75  A    between atoms: _185  and  _187
REMARK   76  A    between atoms: _187  and  _188
REMARK   77  A    between atoms: _187  and  _190
REMARK   78  A    between atoms: _190  and  _191
REMARK   79  A    between atoms: _194  and  _196
REMARK   80  A    between atoms: _196  and  _197
REMARK   81  A    between atoms: _196  and  _199
REMARK   82  A    between atoms: _199  and  _200
REMARK   83  A    between atoms: _205  and  _207
REMARK   84  A    between atoms: _207  and  _208
REMARK   85  A    between atoms: _207  and  _210
REMARK   86  A    between atoms: _210  and  _211
REMARK   87  A    between atoms: _214  and  _216
REMARK   88  A    between atoms: _216  and  _217
REMARK   89  A    between atoms: _216  and  _219
REMARK   90  A    between atoms: _219  and  _220
REMARK   91  A    between atoms: _223  and  _225
REMARK   92  A    between atoms: _225  and  _226
REMARK   93  A    between atoms: _225  and  _228
REMARK   94  A    between atoms: _228  and  _229
REMARK   95  A    between atoms: _234  and  _235
REMARK   96  A    between atoms: _237  and  _239
REMARK   97  A    between atoms: _239  and  _240
REMARK   98  A    between atoms: _239  and  _242
REMARK   99  A    between atoms: _242  and  _243
REMARK  100  A    between atoms: _248  and  _249
REMARK  101  A    between atoms: _251  and  _253
REMARK  102  A    between atoms: _253  and  _254
REMARK  103  A    between atoms: _253  and  _256
REMARK  104  A    between atoms: _256  and  _257
REMARK  105  A    between atoms: _257  and  _258
REMARK  106  A    between atoms: _258  and  _259
REMARK  107  A    between atoms: _268  and  _270
REMARK  108  A    between atoms: _270  and  _271
REMARK  109  A    between atoms: _270  and  _273
REMARK  110  A    between atoms: _273  and  _274
REMARK  111  A    between atoms: _279  and  _280
REMARK  112  A    between atoms: _282  and  _284
REMARK  113  A    between atoms: _284  and  _285
REMARK  114  A    between atoms: _284  and  _287
REMARK  115  A    between atoms: _287  and  _288
REMARK  116  A    between atoms: _291  and  _293
REMARK  117  A    between atoms: _293  and  _294
REMARK  118  A    between atoms: _293  and  _296
REMARK  119  A    between atoms: _296  and  _297
REMARK  120  A    between atoms: _307  and  _309
REMARK  121  A    between atoms: _309  and  _310
REMARK  122  A    between atoms: _309  and  _312
REMARK  123  A    between atoms: _312  and  _313
REMARK  124  A    between atoms: _316  and  _318
REMARK  125  A    between atoms: _318  and  _319
REMARK  126  A    between atoms: _318  and  _321
REMARK  127  A    between atoms: _321  and  _322
REMARK  128  A    between atoms: _322  and  _323
REMARK  129  A    between atoms: _326  and  _328
REMARK  130  A    between atoms: _328  and  _329
REMARK  131  A    between atoms: _328  and  _331
REMARK  132  A    between atoms: _331  and  _332
REMARK  133  A    between atoms: _334  and  _336
REMARK  134  A    between atoms: _336  and  _337
REMARK  135  A    between atoms: _336  and  _339
REMARK  136  A    between atoms: _339  and  _340
REMARK  137  A    between atoms: _343  and  _345
REMARK  138  A    between atoms: _345  and  _346
REMARK  139  A    between atoms: _348  and  _350
REMARK  140  A    between atoms: _350  and  _351
REMARK  141  A    between atoms: _350  and  _353
REMARK  142  A    between atoms: _353  and  _354
REMARK  143  A    between atoms: _364  and  _366
REMARK  144  A    between atoms: _366  and  _367
REMARK  145  A    between atoms: _366  and  _369
REMARK  146  A    between atoms: _369  and  _370
REMARK  147  A    between atoms: _370  and  _371
REMARK  148  A    between atoms: _371  and  _372
REMARK  149  A    between atoms: _381  and  _383
REMARK  150  A    between atoms: _383  and  _384
REMARK  151  A    between atoms: _383  and  _386
REMARK  152  A    between atoms: _386  and  _387
REMARK  153  A    between atoms: _387  and  _388
REMARK  154  A    between atoms: _388  and  _389
REMARK  155  A    between atoms: _389  and  _390
REMARK  156  A    between atoms: _394  and  _396
REMARK  157  A    between atoms: _396  and  _397
REMARK  158  A    between atoms: _396  and  _399
REMARK  159  A    between atoms: _399  and  _400
REMARK  160  A    between atoms: _400  and  _401
REMARK  161  A    between atoms: _406  and  _408
REMARK  162  A    between atoms: _408  and  _409
REMARK  163  A    between atoms: _408  and  _411
REMARK  164  A    between atoms: _411  and  _412
REMARK                            x       y       z     vdW  Elec       q    Type
REMARK                         _______ _______ _______ _____ _____    ______ ____
ROOT
ATOM      1  O   HOH     1      11.628   2.762  18.790  0.00  0.00    +0.000 OA
ENDROOT
TORSDOF 0
REMARK  Name = ../refined-set-2016/3uj9/3uj9_pocket.pdb
REMARK  164 active torsions:
REMARK  status: ('A' for Active; 'I' for Inactive)
REMARK    1  A    between atoms: _1  and  _3
REMARK    2  A    between atoms: _3  and  _4
REMARK    3  A    between atoms: _3  and  _6
REMARK    4  A    between atoms: _6  and  _7
REMARK    5  A    between atoms: _7  and  _8
REMARK    6  A    between atoms: _13  and  _15
REMARK    7  A    between atoms: _15  and  _16
REMARK    8  A    between atoms: _15  and  _18
REMARK    9  A    between atoms: _18  and  _19
REMARK   10  A    between atoms: _24  and  _25
REMARK   11  A    between atoms: _27  and  _29
REMARK   12  A    between atoms: _29  and  _30
REMARK   13  A    between atoms: _32  and  _34
REMARK   14  A    between atoms: _34  and  _35
REMARK   15  A    between atoms: _34  and  _37
REMARK   16  A    between atoms: _37  and  _38
REMARK   17  A    between atoms: _43  and  _44
REMARK   18  A    between atoms: _46  and  _48
REMARK   19  A    between atoms: _48  and  _49
REMARK   20  A    between atoms: _48  and  _51
REMARK   21  A    between atoms: _51  and  _52
REMARK   22  A    between atoms: _55  and  _57
REMARK   23  A    between atoms: _57  and  _58
REMARK   24  A    between atoms: _57  and  _60
REMARK   25  A    between atoms: _60  and  _61
REMARK   26  A    between atoms: _67  and  _69
REMARK   27  A    between atoms: _69  and  _70
REMARK   28  A    between atoms: _69  and  _72
REMARK   29  A    between atoms: _72  and  _73
REMARK   30  A    between atoms: _78  and  _79
REMARK   31  A    between atoms: _81  and  _83
REMARK   32  A    between atoms: _83  and  _84
REMARK   33  A    between atoms: _83  and  _86
REMARK   34  A    between atoms: _86  and  _87
REMARK   35  A    between atoms: _90  and  _92
REMARK   36  A    between atoms: _92  and  _93
REMARK   37  A    between atoms: _92  and  _95
REMARK   38  A    between atoms: _95  and  _96
REMARK   39  A    between atoms: _98  and  _100
REMARK   40  A    between atoms: _100  and  _101
REMARK   41  A    between atoms: _100  and  _103
REMARK   42  A    between atoms: _103  and  _104
REMARK   43  A    between atoms: _106  and  _108
REMARK   44  A    between atoms: _108  and  _109
REMARK   45  A    between atoms: _111  and  _113
REMARK   46  A    between atoms: _113  and  _114
REMARK   47  A    between atoms: _116  and  _118
REMARK   48  A    between atoms: _118  and  _119
REMARK   49  A    between atoms: _121  and  _123
REMARK   50  A    between atoms: _123  and  _124
REMARK   51  A    between atoms: _126  and  _128
REMARK   52  A    between atoms: _128  and  _129
REMARK   53  A    between atoms: _128  and  _131
REMARK   54  A    between atoms: _131  and  _132
REMARK   55  A    between atoms: _135  and  _137
REMARK   56  A    between atoms: _137  and  _138
REMARK   57  A    between atoms: _137  and  _140
REMARK   58  A    between atoms: _140  and  _141
REMARK   59  A    between atoms: _144  and  _146
REMARK   60  A    between atoms: _146  and  _147
REMARK   61  A    between atoms: _146  and  _149
REMARK   62  A    between atoms: _149  and  _150
REMARK   63  A    between atoms: _150  and  _151
REMARK   64  A    between atoms: _151  and  _152
REMARK   65  A    between atoms: _161  and  _163
REMARK   66  A    between atoms: _163  and  _164
REMARK   67  A    between atoms: _163  and  _166
REMARK   68  A    between atoms: _166  and  _167
REMARK   69  A    between atoms: _170  and  _172
REMARK   70  A    between atoms: _172  and  _173
REMARK   71  A    between atoms: _176  and  _178
REMARK   72  A    between atoms: _178  and  _179
REMARK   73  A    between atoms: _178  and  _181
REMARK   74  A    between atoms: _181  and  _182
REMARK   75  A    between atoms: _185  and  _187
REMARK   76  A    between atoms: _187  and  _188
REMARK   77  A    between atoms: _187  and  _190
REMARK   78  A    between atoms: _190  and  _191
REMARK   79  A    between atoms: _194  and  _196
REMARK   80  A    between atoms: _196  and  _197
REMARK   81  A    between atoms: _196  and  _199
REMARK   82  A    between atoms: _199  and  _200
REMARK   83  A    between atoms: _205  and  _207
REMARK   84  A    between atoms: _207  and  _208
REMARK   85  A    between atoms: _207  and  _210
REMARK   86  A    between atoms: _210  and  _211
REMARK   87  A    between atoms: _214  and  _216
REMARK   88  A    between atoms: _216  and  _217
REMARK   89  A    between atoms: _216  and  _219
REMARK   90  A    between atoms: _219  and  _220
REMARK   91  A    between atoms: _223  and  _225
REMARK   92  A    between atoms: _225  and  _226
REMARK   93  A    between atoms: _225  and  _228
REMARK   94  A    between atoms: _228  and  _229
REMARK   95  A    between atoms: _234  and  _235
REMARK   96  A    between atoms: _237  and  _239
REMARK   97  A    between atoms: _239  and  _240
REMARK   98  A    between atoms: _239  and  _242
REMARK   99  A    between atoms: _242  and  _243
REMARK  100  A    between atoms: _248  and  _249
REMARK  101  A    between atoms: _251  and  _253
REMARK  102  A    between atoms: _253  and  _254
REMARK  103  A    between atoms: _253  and  _256
REMARK  104  A    between atoms: _256  and  _257
REMARK  105  A    between atoms: _257  and  _258
REMARK  106  A    between atoms: _258  and  _259
REMARK  107  A    between atoms: _268  and  _270
REMARK  108  A    between atoms: _270  and  _271
REMARK  109  A    between atoms: _270  and  _273
REMARK  110  A    between atoms: _273  and  _274
REMARK  111  A    between atoms: _279  and  _280
REMARK  112  A    between atoms: _282  and  _284
REMARK  113  A    between atoms: _284  and  _285
REMARK  114  A    between atoms: _284  and  _287
REMARK  115  A    between atoms: _287  and  _288
REMARK  116  A    between atoms: _291  and  _293
REMARK  117  A    between atoms: _293  and  _294
REMARK  118  A    between atoms: _293  and  _296
REMARK  119  A    between atoms: _296  and  _297
REMARK  120  A    between atoms: _307  and  _309
REMARK  121  A    between atoms: _309  and  _310
REMARK  122  A    between atoms: _309  and  _312
REMARK  123  A    between atoms: _312  and  _313
REMARK  124  A    between atoms: _316  and  _318
REMARK  125  A    between atoms: _318  and  _319
REMARK  126  A    between atoms: _318  and  _321
REMARK  127  A    between atoms: _321  and  _322
REMARK  128  A    between atoms: _322  and  _323
REMARK  129  A    between atoms: _326  and  _328
REMARK  130  A    between atoms: _328  and  _329
REMARK  131  A    between atoms: _328  and  _331
REMARK  132  A    between atoms: _331  and  _332
REMARK  133  A    between atoms: _334  and  _336
REMARK  134  A    between atoms: _336  and  _337
REMARK  135  A    between atoms: _336  and  _339
REMARK  136  A    between atoms: _339  and  _340
REMARK  137  A    between atoms: _343  and  _345
REMARK  138  A    between atoms: _345  and  _346
REMARK  139  A    between atoms: _348  and  _350
REMARK  140  A    between atoms: _350  and  _351
REMARK  141  A    between atoms: _350  and  _353
REMARK  142  A    between atoms: _353  and  _354
REMARK  143  A    between atoms: _364  and  _366
REMARK  144  A    between atoms: _366  and  _367
REMARK  145  A    between atoms: _366  and  _369
REMARK  146  A    between atoms: _369  and  _370
REMARK  147  A    between atoms: _370  and  _371
REMARK  148  A    between atoms: _371  and  _372
REMARK  149  A    between atoms: _381  and  _383
REMARK  150  A    between atoms: _383  and  _384
REMARK  151  A    between atoms: _383  and  _386
REMARK  152  A    between atoms: _386  and  _387
REMARK  153  A    between atoms: _387  and  _388
REMARK  154  A    between atoms: _388  and  _389
REMARK  155  A    between atoms: _389  and  _390
REMARK  156  A    between atoms: _394  and  _396
REMARK  157  A    between atoms: _396  and  _397
REMARK  158  A    between atoms: _396  and  _399
REMARK  159  A    between atoms: _399  and  _400
REMARK  160  A    between atoms: _400  and  _401
REMARK  161  A    between atoms: _406  and  _408
REMARK  162  A    between atoms: _408  and  _409
REMARK  163  A    between atoms: _408  and  _411
REMARK  164  A    between atoms: _411  and  _412
REMARK                            x       y       z     vdW  Elec       q    Type
REMARK                         _______ _______ _______ _____ _____    ______ ____
ROOT
ATOM      1  O   HOH     1      26.463  14.773  16.884  0.00  0.00    +0.000 OA
ENDROOT
TORSDOF 0
REMARK  Name = ../refined-set-2016/3uj9/3uj9_pocket.pdb
REMARK  164 active torsions:
REMARK  status: ('A' for Active; 'I' for Inactive)
REMARK    1  A    between atoms: _1  and  _3
REMARK    2  A    between atoms: _3  and  _4
REMARK    3  A    between atoms: _3  and  _6
REMARK    4  A    between atoms: _6  and  _7
REMARK    5  A    between atoms: _7  and  _8
REMARK    6  A    between atoms: _13  and  _15
REMARK    7  A    between atoms: _15  and  _16
REMARK    8  A    between atoms: _15  and  _18
REMARK    9  A    between atoms: _18  and  _19
REMARK   10  A    between atoms: _24  and  _25
REMARK   11  A    between atoms: _27  and  _29
REMARK   12  A    between atoms: _29  and  _30
REMARK   13  A    between atoms: _32  and  _34
REMARK   14  A    between atoms: _34  and  _35
REMARK   15  A    between atoms: _34  and  _37
REMARK   16  A    between atoms: _37  and  _38
REMARK   17  A    between atoms: _43  and  _44
REMARK   18  A    between atoms: _46  and  _48
REMARK   19  A    between atoms: _48  and  _49
REMARK   20  A    between atoms: _48  and  _51
REMARK   21  A    between atoms: _51  and  _52
REMARK   22  A    between atoms: _55  and  _57
REMARK   23  A    between atoms: _57  and  _58
REMARK   24  A    between atoms: _57  and  _60
REMARK   25  A    between atoms: _60  and  _61
REMARK   26  A    between atoms: _67  and  _69
REMARK   27  A    between atoms: _69  and  _70
REMARK   28  A    between atoms: _69  and  _72
REMARK   29  A    between atoms: _72  and  _73
REMARK   30  A    between atoms: _78  and  _79
REMARK   31  A    between atoms: _81  and  _83
REMARK   32  A    between atoms: _83  and  _84
REMARK   33  A    between atoms: _83  and  _86
REMARK   34  A    between atoms: _86  and  _87
REMARK   35  A    between atoms: _90  and  _92
REMARK   36  A    between atoms: _92  and  _93
REMARK   37  A    between atoms: _92  and  _95
REMARK   38  A    between atoms: _95  and  _96
REMARK   39  A    between atoms: _98  and  _100
REMARK   40  A    between atoms: _100  and  _101
REMARK   41  A    between atoms: _100  and  _103
REMARK   42  A    between atoms: _103  and  _104
REMARK   43  A    between atoms: _106  and  _108
REMARK   44  A    between atoms: _108  and  _109
REMARK   45  A    between atoms: _111  and  _113
REMARK   46  A    between atoms: _113  and  _114
REMARK   47  A    between atoms: _116  and  _118
REMARK   48  A    between atoms: _118  and  _119
REMARK   49  A    between atoms: _121  and  _123
REMARK   50  A    between atoms: _123  and  _124
REMARK   51  A    between atoms: _126  and  _128
REMARK   52  A    between atoms: _128  and  _129
REMARK   53  A    between atoms: _128  and  _131
REMARK   54  A    between atoms: _131  and  _132
REMARK   55  A    between atoms: _135  and  _137
REMARK   56  A    between atoms: _137  and  _138
REMARK   57  A    between atoms: _137  and  _140
REMARK   58  A    between atoms: _140  and  _141
REMARK   59  A    between atoms: _144  and  _146
REMARK   60  A    between atoms: _146  and  _147
REMARK   61  A    between atoms: _146  and  _149
REMARK   62  A    between atoms: _149  and  _150
REMARK   63  A    between atoms: _150  and  _151
REMARK   64  A    between atoms: _151  and  _152
REMARK   65  A    between atoms: _161  and  _163
REMARK   66  A    between atoms: _163  and  _164
REMARK   67  A    between atoms: _163  and  _166
REMARK   68  A    between atoms: _166  and  _167
REMARK   69  A    between atoms: _170  and  _172
REMARK   70  A    between atoms: _172  and  _173
REMARK   71  A    between atoms: _176  and  _178
REMARK   72  A    between atoms: _178  and  _179
REMARK   73  A    between atoms: _178  and  _181
REMARK   74  A    between atoms: _181  and  _182
REMARK   75  A    between atoms: _185  and  _187
REMARK   76  A    between atoms: _187  and  _188
REMARK   77  A    between atoms: _187  and  _190
REMARK   78  A    between atoms: _190  and  _191
REMARK   79  A    between atoms: _194  and  _196
REMARK   80  A    between atoms: _196  and  _197
REMARK   81  A    between atoms: _196  and  _199
REMARK   82  A    between atoms: _199  and  _200
REMARK   83  A    between atoms: _205  and  _207
REMARK   84  A    between atoms: _207  and  _208
REMARK   85  A    between atoms: _207  and  _210
REMARK   86  A    between atoms: _210  and  _211
REMARK   87  A    between atoms: _214  and  _216
REMARK   88  A    between atoms: _216  and  _217
REMARK   89  A    between atoms: _216  and  _219
REMARK   90  A    between atoms: _219  and  _220
REMARK   91  A    between atoms: _223  and  _225
REMARK   92  A    between atoms: _225  and  _226
REMARK   93  A    between atoms: _225  and  _228
REMARK   94  A    between atoms: _228  and  _229
REMARK   95  A    between atoms: _234  and  _235
REMARK   96  A    between atoms: _237  and  _239
REMARK   97  A    between atoms: _239  and  _240
REMARK   98  A    between atoms: _239  and  _242
REMARK   99  A    between atoms: _242  and  _243
REMARK  100  A    between atoms: _248  and  _249
REMARK  101  A    between atoms: _251  and  _253
REMARK  102  A    between atoms: _253  and  _254
REMARK  103  A    between atoms: _253  and  _256
REMARK  104  A    between atoms: _256  and  _257
REMARK  105  A    between atoms: _257  and  _258
REMARK  106  A    between atoms: _258  and  _259
REMARK  107  A    between atoms: _268  and  _270
REMARK  108  A    between atoms: _270  and  _271
REMARK  109  A    between atoms: _270  and  _273
REMARK  110  A    between atoms: _273  and  _274
REMARK  111  A    between atoms: _279  and  _280
REMARK  112  A    between atoms: _282  and  _284
REMARK  113  A    between atoms: _284  and  _285
REMARK  114  A    between atoms: _284  and  _287
REMARK  115  A    between atoms: _287  and  _288
REMARK  116  A    between atoms: _291  and  _293
REMARK  117  A    between atoms: _293  and  _294
REMARK  118  A    between atoms: _293  and  _296
REMARK  119  A    between atoms: _296  and  _297
REMARK  120  A    between atoms: _307  and  _309
REMARK  121  A    between atoms: _309  and  _310
REMARK  122  A    between atoms: _309  and  _312
REMARK  123  A    between atoms: _312  and  _313
REMARK  124  A    between atoms: _316  and  _318
REMARK  125  A    between atoms: _318  and  _319
REMARK  126  A    between atoms: _318  and  _321
REMARK  127  A    between atoms: _321  and  _322
REMARK  128  A    between atoms: _322  and  _323
REMARK  129  A    between atoms: _326  and  _328
REMARK  130  A    between atoms: _328  and  _329
REMARK  131  A    between atoms: _328  and  _331
REMARK  132  A    between atoms: _331  and  _332
REMARK  133  A    between atoms: _334  and  _336
REMARK  134  A    between atoms: _336  and  _337
REMARK  135  A    between atoms: _336  and  _339
REMARK  136  A    between atoms: _339  and  _340
REMARK  137  A    between atoms: _343  and  _345
REMARK  138  A    between atoms: _345  and  _346
REMARK  139  A    between atoms: _348  and  _350
REMARK  140  A    between atoms: _350  and  _351
REMARK  141  A    between atoms: _350  and  _353
REMARK  142  A    between atoms: _353  and  _354
REMARK  143  A    between atoms: _364  and  _366
REMARK  144  A    between atoms: _366  and  _367
REMARK  145  A    between atoms: _366  and  _369
REMARK  146  A    between atoms: _369  and  _370
REMARK  147  A    between atoms: _370  and  _371
REMARK  148  A    between atoms: _371  and  _372
REMARK  149  A    between atoms: _381  and  _383
REMARK  150  A    between atoms: _383  and  _384
REMARK  151  A    between atoms: _383  and  _386
REMARK  152  A    between atoms: _386  and  _387
REMARK  153  A    between atoms: _387  and  _388
REMARK  154  A    between atoms: _388  and  _389
REMARK  155  A    between atoms: _389  and  _390
REMARK  156  A    between atoms: _394  and  _396
REMARK  157  A    between atoms: _396  and  _397
REMARK  158  A    between atoms: _396  and  _399
REMARK  159  A    between atoms: _399  and  _400
REMARK  160  A    between atoms: _400  and  _401
REMARK  161  A    between atoms: _406  and  _408
REMARK  162  A    between atoms: _408  and  _409
REMARK  163  A    between atoms: _408  and  _411
REMARK  164  A    between atoms: _411  and  _412
REMARK                            x       y       z     vdW  Elec       q    Type
REMARK                         _______ _______ _______ _____ _____    ______ ____
ROOT
ATOM      1  O   HOH     1      26.265  16.421  20.976  0.00  0.00    +0.000 OA
ENDROOT
TORSDOF 0
REMARK  Name = ../refined-set-2016/3uj9/3uj9_pocket.pdb
REMARK  164 active torsions:
REMARK  status: ('A' for Active; 'I' for Inactive)
REMARK    1  A    between atoms: _1  and  _3
REMARK    2  A    between atoms: _3  and  _4
REMARK    3  A    between atoms: _3  and  _6
REMARK    4  A    between atoms: _6  and  _7
REMARK    5  A    between atoms: _7  and  _8
REMARK    6  A    between atoms: _13  and  _15
REMARK    7  A    between atoms: _15  and  _16
REMARK    8  A    between atoms: _15  and  _18
REMARK    9  A    between atoms: _18  and  _19
REMARK   10  A    between atoms: _24  and  _25
REMARK   11  A    between atoms: _27  and  _29
REMARK   12  A    between atoms: _29  and  _30
REMARK   13  A    between atoms: _32  and  _34
REMARK   14  A    between atoms: _34  and  _35
REMARK   15  A    between atoms: _34  and  _37
REMARK   16  A    between atoms: _37  and  _38
REMARK   17  A    between atoms: _43  and  _44
REMARK   18  A    between atoms: _46  and  _48
REMARK   19  A    between atoms: _48  and  _49
REMARK   20  A    between atoms: _48  and  _51
REMARK   21  A    between atoms: _51  and  _52
REMARK   22  A    between atoms: _55  and  _57
REMARK   23  A    between atoms: _57  and  _58
REMARK   24  A    between atoms: _57  and  _60
REMARK   25  A    between atoms: _60  and  _61
REMARK   26  A    between atoms: _67  and  _69
REMARK   27  A    between atoms: _69  and  _70
REMARK   28  A    between atoms: _69  and  _72
REMARK   29  A    between atoms: _72  and  _73
REMARK   30  A    between atoms: _78  and  _79
REMARK   31  A    between atoms: _81  and  _83
REMARK   32  A    between atoms: _83  and  _84
REMARK   33  A    between atoms: _83  and  _86
REMARK   34  A    between atoms: _86  and  _87
REMARK   35  A    between atoms: _90  and  _92
REMARK   36  A    between atoms: _92  and  _93
REMARK   37  A    between atoms: _92  and  _95
REMARK   38  A    between atoms: _95  and  _96
REMARK   39  A    between atoms: _98  and  _100
REMARK   40  A    between atoms: _100  and  _101
REMARK   41  A    between atoms: _100  and  _103
REMARK   42  A    between atoms: _103  and  _104
REMARK   43  A    between atoms: _106  and  _108
REMARK   44  A    between atoms: _108  and  _109
REMARK   45  A    between atoms: _111  and  _113
REMARK   46  A    between atoms: _113  and  _114
REMARK   47  A    between atoms: _116  and  _118
REMARK   48  A    between atoms: _118  and  _119
REMARK   49  A    between atoms: _121  and  _123
REMARK   50  A    between atoms: _123  and  _124
REMARK   51  A    between atoms: _126  and  _128
REMARK   52  A    between atoms: _128  and  _129
REMARK   53  A    between atoms: _128  and  _131
REMARK   54  A    between atoms: _131  and  _132
REMARK   55  A    between atoms: _135  and  _137
REMARK   56  A    between atoms: _137  and  _138
REMARK   57  A    between atoms: _137  and  _140
REMARK   58  A    between atoms: _140  and  _141
REMARK   59  A    between atoms: _144  and  _146
REMARK   60  A    between atoms: _146  and  _147
REMARK   61  A    between atoms: _146  and  _149
REMARK   62  A    between atoms: _149  and  _150
REMARK   63  A    between atoms: _150  and  _151
REMARK   64  A    between atoms: _151  and  _152
REMARK   65  A    between atoms: _161  and  _163
REMARK   66  A    between atoms: _163  and  _164
REMARK   67  A    between atoms: _163  and  _166
REMARK   68  A    between atoms: _166  and  _167
REMARK   69  A    between atoms: _170  and  _172
REMARK   70  A    between atoms: _172  and  _173
REMARK   71  A    between atoms: _176  and  _178
REMARK   72  A    between atoms: _178  and  _179
REMARK   73  A    between atoms: _178  and  _181
REMARK   74  A    between atoms: _181  and  _182
REMARK   75  A    between atoms: _185  and  _187
REMARK   76  A    between atoms: _187  and  _188
REMARK   77  A    between atoms: _187  and  _190
REMARK   78  A    between atoms: _190  and  _191
REMARK   79  A    between atoms: _194  and  _196
REMARK   80  A    between atoms: _196  and  _197
REMARK   81  A    between atoms: _196  and  _199
REMARK   82  A    between atoms: _199  and  _200
REMARK   83  A    between atoms: _205  and  _207
REMARK   84  A    between atoms: _207  and  _208
REMARK   85  A    between atoms: _207  and  _210
REMARK   86  A    between atoms: _210  and  _211
REMARK   87  A    between atoms: _214  and  _216
REMARK   88  A    between atoms: _216  and  _217
REMARK   89  A    between atoms: _216  and  _219
REMARK   90  A    between atoms: _219  and  _220
REMARK   91  A    between atoms: _223  and  _225
REMARK   92  A    between atoms: _225  and  _226
REMARK   93  A    between atoms: _225  and  _228
REMARK   94  A    between atoms: _228  and  _229
REMARK   95  A    between atoms: _234  and  _235
REMARK   96  A    between atoms: _237  and  _239
REMARK   97  A    between atoms: _239  and  _240
REMARK   98  A    between atoms: _239  and  _242
REMARK   99  A    between atoms: _242  and  _243
REMARK  100  A    between atoms: _248  and  _249
REMARK  101  A    between atoms: _251  and  _253
REMARK  102  A    between atoms: _253  and  _254
REMARK  103  A    between atoms: _253  and  _256
REMARK  104  A    between atoms: _256  and  _257
REMARK  105  A    between atoms: _257  and  _258
REMARK  106  A    between atoms: _258  and  _259
REMARK  107  A    between atoms: _268  and  _270
REMARK  108  A    between atoms: _270  and  _271
REMARK  109  A    between atoms: _270  and  _273
REMARK  110  A    between atoms: _273  and  _274
REMARK  111  A    between atoms: _279  and  _280
REMARK  112  A    between atoms: _282  and  _284
REMARK  113  A    between atoms: _284  and  _285
REMARK  114  A    between atoms: _284  and  _287
REMARK  115  A    between atoms: _287  and  _288
REMARK  116  A    between atoms: _291  and  _293
REMARK  117  A    between atoms: _293  and  _294
REMARK  118  A    between atoms: _293  and  _296
REMARK  119  A    between atoms: _296  and  _297
REMARK  120  A    between atoms: _307  and  _309
REMARK  121  A    between atoms: _309  and  _310
REMARK  122  A    between atoms: _309  and  _312
REMARK  123  A    between atoms: _312  and  _313
REMARK  124  A    between atoms: _316  and  _318
REMARK  125  A    between atoms: _318  and  _319
REMARK  126  A    between atoms: _318  and  _321
REMARK  127  A    between atoms: _321  and  _322
REMARK  128  A    between atoms: _322  and  _323
REMARK  129  A    between atoms: _326  and  _328
REMARK  130  A    between atoms: _328  and  _329
REMARK  131  A    between atoms: _328  and  _331
REMARK  132  A    between atoms: _331  and  _332
REMARK  133  A    between atoms: _334  and  _336
REMARK  134  A    between atoms: _336  and  _337
REMARK  135  A    between atoms: _336  and  _339
REMARK  136  A    between atoms: _339  and  _340
REMARK  137  A    between atoms: _343  and  _345
REMARK  138  A    between atoms: _345  and  _346
REMARK  139  A    between atoms: _348  and  _350
REMARK  140  A    between atoms: _350  and  _351
REMARK  141  A    between atoms: _350  and  _353
REMARK  142  A    between atoms: _353  and  _354
REMARK  143  A    between atoms: _364  and  _366
REMARK  144  A    between atoms: _366  and  _367
REMARK  145  A    between atoms: _366  and  _369
REMARK  146  A    between atoms: _369  and  _370
REMARK  147  A    between atoms: _370  and  _371
REMARK  148  A    between atoms: _371  and  _372
REMARK  149  A    between atoms: _381  and  _383
REMARK  150  A    between atoms: _383  and  _384
REMARK  151  A    between atoms: _383  and  _386
REMARK  152  A    between atoms: _386  and  _387
REMARK  153  A    between atoms: _387  and  _388
REMARK  154  A    between atoms: _388  and  _389
REMARK  155  A    between atoms: _389  and  _390
REMARK  156  A    between atoms: _394  and  _396
REMARK  157  A    between atoms: _396  and  _397
REMARK  158  A    between atoms: _396  and  _399
REMARK  159  A    between atoms: _399  and  _400
REMARK  160  A    between atoms: _400  and  _401
REMARK  161  A    between atoms: _406  and  _408
REMARK  162  A    between atoms: _408  and  _409
REMARK  163  A    between atoms: _408  and  _411
REMARK  164  A    between atoms: _411  and  _412
REMARK                            x       y       z     vdW  Elec       q    Type
REMARK                         _______ _______ _______ _____ _____    ______ ____
ROOT
ATOM      1  O   HOH     1      14.502   6.156  14.450  0.00  0.00    +0.000 OA
ENDROOT
TORSDOF 0
REMARK  Name = ../refined-set-2016/3uj9/3uj9_pocket.pdb
REMARK  164 active torsions:
REMARK  status: ('A' for Active; 'I' for Inactive)
REMARK    1  A    between atoms: _1  and  _3
REMARK    2  A    between atoms: _3  and  _4
REMARK    3  A    between atoms: _3  and  _6
REMARK    4  A    between atoms: _6  and  _7
REMARK    5  A    between atoms: _7  and  _8
REMARK    6  A    between atoms: _13  and  _15
REMARK    7  A    between atoms: _15  and  _16
REMARK    8  A    between atoms: _15  and  _18
REMARK    9  A    between atoms: _18  and  _19
REMARK   10  A    between atoms: _24  and  _25
REMARK   11  A    between atoms: _27  and  _29
REMARK   12  A    between atoms: _29  and  _30
REMARK   13  A    between atoms: _32  and  _34
REMARK   14  A    between atoms: _34  and  _35
REMARK   15  A    between atoms: _34  and  _37
REMARK   16  A    between atoms: _37  and  _38
REMARK   17  A    between atoms: _43  and  _44
REMARK   18  A    between atoms: _46  and  _48
REMARK   19  A    between atoms: _48  and  _49
REMARK   20  A    between atoms: _48  and  _51
REMARK   21  A    between atoms: _51  and  _52
REMARK   22  A    between atoms: _55  and  _57
REMARK   23  A    between atoms: _57  and  _58
REMARK   24  A    between atoms: _57  and  _60
REMARK   25  A    between atoms: _60  and  _61
REMARK   26  A    between atoms: _67  and  _69
REMARK   27  A    between atoms: _69  and  _70
REMARK   28  A    between atoms: _69  and  _72
REMARK   29  A    between atoms: _72  and  _73
REMARK   30  A    between atoms: _78  and  _79
REMARK   31  A    between atoms: _81  and  _83
REMARK   32  A    between atoms: _83  and  _84
REMARK   33  A    between atoms: _83  and  _86
REMARK   34  A    between atoms: _86  and  _87
REMARK   35  A    between atoms: _90  and  _92
REMARK   36  A    between atoms: _92  and  _93
REMARK   37  A    between atoms: _92  and  _95
REMARK   38  A    between atoms: _95  and  _96
REMARK   39  A    between atoms: _98  and  _100
REMARK   40  A    between atoms: _100  and  _101
REMARK   41  A    between atoms: _100  and  _103
REMARK   42  A    between atoms: _103  and  _104
REMARK   43  A    between atoms: _106  and  _108
REMARK   44  A    between atoms: _108  and  _109
REMARK   45  A    between atoms: _111  and  _113
REMARK   46  A    between atoms: _113  and  _114
REMARK   47  A    between atoms: _116  and  _118
REMARK   48  A    between atoms: _118  and  _119
REMARK   49  A    between atoms: _121  and  _123
REMARK   50  A    between atoms: _123  and  _124
REMARK   51  A    between atoms: _126  and  _128
REMARK   52  A    between atoms: _128  and  _129
REMARK   53  A    between atoms: _128  and  _131
REMARK   54  A    between atoms: _131  and  _132
REMARK   55  A    between atoms: _135  and  _137
REMARK   56  A    between atoms: _137  and  _138
REMARK   57  A    between atoms: _137  and  _140
REMARK   58  A    between atoms: _140  and  _141
REMARK   59  A    between atoms: _144  and  _146
REMARK   60  A    between atoms: _146  and  _147
REMARK   61  A    between atoms: _146  and  _149
REMARK   62  A    between atoms: _149  and  _150
REMARK   63  A    between atoms: _150  and  _151
REMARK   64  A    between atoms: _151  and  _152
REMARK   65  A    between atoms: _161  and  _163
REMARK   66  A    between atoms: _163  and  _164
REMARK   67  A    between atoms: _163  and  _166
REMARK   68  A    between atoms: _166  and  _167
REMARK   69  A    between atoms: _170  and  _172
REMARK   70  A    between atoms: _172  and  _173
REMARK   71  A    between atoms: _176  and  _178
REMARK   72  A    between atoms: _178  and  _179
REMARK   73  A    between atoms: _178  and  _181
REMARK   74  A    between atoms: _181  and  _182
REMARK   75  A    between atoms: _185  and  _187
REMARK   76  A    between atoms: _187  and  _188
REMARK   77  A    between atoms: _187  and  _190
REMARK   78  A    between atoms: _190  and  _191
REMARK   79  A    between atoms: _194  and  _196
REMARK   80  A    between atoms: _196  and  _197
REMARK   81  A    between atoms: _196  and  _199
REMARK   82  A    between atoms: _199  and  _200
REMARK   83  A    between atoms: _205  and  _207
REMARK   84  A    between atoms: _207  and  _208
REMARK   85  A    between atoms: _207  and  _210
REMARK   86  A    between atoms: _210  and  _211
REMARK   87  A    between atoms: _214  and  _216
REMARK   88  A    between atoms: _216  and  _217
REMARK   89  A    between atoms: _216  and  _219
REMARK   90  A    between atoms: _219  and  _220
REMARK   91  A    between atoms: _223  and  _225
REMARK   92  A    between atoms: _225  and  _226
REMARK   93  A    between atoms: _225  and  _228
REMARK   94  A    between atoms: _228  and  _229
REMARK   95  A    between atoms: _234  and  _235
REMARK   96  A    between atoms: _237  and  _239
REMARK   97  A    between atoms: _239  and  _240
REMARK   98  A    between atoms: _239  and  _242
REMARK   99  A    between atoms: _242  and  _243
REMARK  100  A    between atoms: _248  and  _249
REMARK  101  A    between atoms: _251  and  _253
REMARK  102  A    between atoms: _253  and  _254
REMARK  103  A    between atoms: _253  and  _256
REMARK  104  A    between atoms: _256  and  _257
REMARK  105  A    between atoms: _257  and  _258
REMARK  106  A    between atoms: _258  and  _259
REMARK  107  A    between atoms: _268  and  _270
REMARK  108  A    between atoms: _270  and  _271
REMARK  109  A    between atoms: _270  and  _273
REMARK  110  A    between atoms: _273  and  _274
REMARK  111  A    between atoms: _279  and  _280
REMARK  112  A    between atoms: _282  and  _284
REMARK  113  A    between atoms: _284  and  _285
REMARK  114  A    between atoms: _284  and  _287
REMARK  115  A    between atoms: _287  and  _288
REMARK  116  A    between atoms: _291  and  _293
REMARK  117  A    between atoms: _293  and  _294
REMARK  118  A    between atoms: _293  and  _296
REMARK  119  A    between atoms: _296  and  _297
REMARK  120  A    between atoms: _307  and  _309
REMARK  121  A    between atoms: _309  and  _310
REMARK  122  A    between atoms: _309  and  _312
REMARK  123  A    between atoms: _312  and  _313
REMARK  124  A    between atoms: _316  and  _318
REMARK  125  A    between atoms: _318  and  _319
REMARK  126  A    between atoms: _318  and  _321
REMARK  127  A    between atoms: _321  and  _322
REMARK  128  A    between atoms: _322  and  _323
REMARK  129  A    between atoms: _326  and  _328
REMARK  130  A    between atoms: _328  and  _329
REMARK  131  A    between atoms: _328  and  _331
REMARK  132  A    between atoms: _331  and  _332
REMARK  133  A    between atoms: _334  and  _336
REMARK  134  A    between atoms: _336  and  _337
REMARK  135  A    between atoms: _336  and  _339
REMARK  136  A    between atoms: _339  and  _340
REMARK  137  A    between atoms: _343  and  _345
REMARK  138  A    between atoms: _345  and  _346
REMARK  139  A    between atoms: _348  and  _350
REMARK  140  A    between atoms: _350  and  _351
REMARK  141  A    between atoms: _350  and  _353
REMARK  142  A    between atoms: _353  and  _354
REMARK  143  A    between atoms: _364  and  _366
REMARK  144  A    between atoms: _366  and  _367
REMARK  145  A    between atoms: _366  and  _369
REMARK  146  A    between atoms: _369  and  _370
REMARK  147  A    between atoms: _370  and  _371
REMARK  148  A    between atoms: _371  and  _372
REMARK  149  A    between atoms: _381  and  _383
REMARK  150  A    between atoms: _383  and  _384
REMARK  151  A    between atoms: _383  and  _386
REMARK  152  A    between atoms: _386  and  _387
REMARK  153  A    between atoms: _387  and  _388
REMARK  154  A    between atoms: _388  and  _389
REMARK  155  A    between atoms: _389  and  _390
REMARK  156  A    between atoms: _394  and  _396
REMARK  157  A    between atoms: _396  and  _397
REMARK  158  A    between atoms: _396  and  _399
REMARK  159  A    between atoms: _399  and  _400
REMARK  160  A    between atoms: _400  and  _401
REMARK  161  A    between atoms: _406  and  _408
REMARK  162  A    between atoms: _408  and  _409
REMARK  163  A    between atoms: _408  and  _411
REMARK  164  A    between atoms: _411  and  _412
REMARK                            x       y       z     vdW  Elec       q    Type
REMARK                         _______ _______ _______ _____ _____    ______ ____
ROOT
ATOM      1  O   HOH     1      15.575   4.877  16.880  0.00  0.00    +0.000 OA
ENDROOT
TORSDOF 0
